
     RDKit          3D

 65 66  0  0  0  0  0  0  0  0999 V2000
    0.2434   -0.6777   -4.3236 C   0  0  0  0  0  0  0  0  0  0  0  0
   -0.7041   -0.5832   -3.2679 O   0  0  0  0  0  0  0  0  0  0  0  0
   -0.2193   -0.4477   -1.9902 C   0  0  0  0  0  0  0  0  0  0  0  0
    1.1382   -0.4576   -1.6614 C   0  0  0  0  0  0  0  0  0  0  0  0
    1.5632   -0.3192   -0.3283 C   0  0  0  0  0  0  0  0  0  0  0  0
    2.9446   -0.3886   -0.0327 N   0  0  0  0  0  0  0  0  0  0  0  0
    3.5077    0.6832   -0.3488 N   0  0  0  0  0  0  0  0  0  0  0  0
    4.9007    0.5631   -0.1673 C   0  0  0  0  0  0  0  0  0  0  0  0
    5.5238    1.0018    1.0139 C   0  0  0  0  0  0  0  0  0  0  0  0
    4.5152    1.7695    2.4320 Br  0  0  0  0  0  0  0  0  0  0  0  0
    6.9091    0.8843    1.1981 C   0  0  0  0  0  0  0  0  0  0  0  0
    7.6978    0.3228    0.1863 C   0  0  0  0  0  0  0  0  0  0  0  0
    9.1472    0.1991    0.3810 N   0  0  0  0  0  0  0  0  0  0  0  0
    9.5964    0.4465    1.5085 O   0  0  0  0  0  0  0  0  0  0  0  0
    9.8250   -0.1415   -0.5968 O   0  0  0  0  0  0  0  0  0  0  0  0
    7.1189   -0.1131   -1.0074 C   0  0  0  0  0  0  0  0  0  0  0  0
    5.7315    0.0237   -1.1612 C   0  0  0  0  0  0  0  0  0  0  0  0
    5.1427   -0.4391   -2.4001 N   0  0  0  0  0  0  0  0  0  0  0  0
    5.3102   -1.6328   -2.6815 O   0  0  0  0  0  0  0  0  0  0  0  0
    4.5511    0.3944   -3.0964 O   0  0  0  0  0  0  0  0  0  0  0  0
    0.6135   -0.1898    0.7040 C   0  0  0  0  0  0  0  0  0  0  0  0
    1.0945   -0.0791    2.0314 N   0  0  0  0  0  0  0  0  0  0  0  0
    0.3582   -0.0229    3.1984 C   0  0  0  0  0  0  0  0  0  0  0  0
    1.2406    0.1058    4.4139 C   0  0  0  0  0  0  0  0  0  0  0  0
   -0.8613   -0.0756    3.3095 O   0  0  0  0  0  0  0  0  0  0  0  0
   -0.7420   -0.1784    0.3727 C   0  0  0  0  0  0  0  0  0  0  0  0
   -1.1758   -0.3012   -0.9617 C   0  0  0  0  0  0  0  0  0  0  0  0
   -2.5745   -0.3007   -1.1698 N   0  0  0  0  0  0  0  0  0  0  0  0
   -3.0698    0.9046   -1.8700 C   0  0  0  0  0  0  0  0  0  0  0  0
   -3.4142    2.0214   -0.8768 C   0  0  0  0  0  0  0  0  0  0  0  0
   -4.5467    1.6215   -0.0918 O   0  0  0  0  0  0  0  0  0  0  0  0
   -5.0765    2.5989    0.6883 C   0  0  0  0  0  0  0  0  0  0  0  0
   -6.2092    2.0590    1.5083 C   0  0  0  0  0  0  0  0  0  0  0  0
   -4.6905    3.7575    0.7278 O   0  0  0  0  0  0  0  0  0  0  0  0
   -3.0701   -1.5939   -1.6898 C   0  0  0  0  0  0  0  0  0  0  0  0
   -4.4099   -1.9495   -1.0270 C   0  0  0  0  0  0  0  0  0  0  0  0
   -4.1755   -2.1898    0.3696 O   0  0  0  0  0  0  0  0  0  0  0  0
   -5.1205   -1.7215    1.2211 C   0  0  0  0  0  0  0  0  0  0  0  0
   -4.6358   -1.8495    2.6338 C   0  0  0  0  0  0  0  0  0  0  0  0
   -6.2174   -1.2774    0.9066 O   0  0  0  0  0  0  0  0  0  0  0  0
    0.8520   -1.5823   -4.2266 H   0  0  0  0  0  0  0  0  0  0  0  0
    0.8688    0.2199   -4.3746 H   0  0  0  0  0  0  0  0  0  0  0  0
   -0.3112   -0.7491   -5.2646 H   0  0  0  0  0  0  0  0  0  0  0  0
    1.9019   -0.5784   -2.4234 H   0  0  0  0  0  0  0  0  0  0  0  0
    7.3625    1.2344    2.1243 H   0  0  0  0  0  0  0  0  0  0  0  0
    7.7217   -0.5485   -1.8039 H   0  0  0  0  0  0  0  0  0  0  0  0
    2.1059   -0.0528    2.1149 H   0  0  0  0  0  0  0  0  0  0  0  0
    1.9142   -0.7525    4.4791 H   0  0  0  0  0  0  0  0  0  0  0  0
    1.8191    1.0304    4.3572 H   0  0  0  0  0  0  0  0  0  0  0  0
    0.6244    0.1355    5.3154 H   0  0  0  0  0  0  0  0  0  0  0  0
   -1.5096   -0.0784    1.1350 H   0  0  0  0  0  0  0  0  0  0  0  0
   -2.3463    1.2785   -2.6031 H   0  0  0  0  0  0  0  0  0  0  0  0
   -3.9822    0.6535   -2.4236 H   0  0  0  0  0  0  0  0  0  0  0  0
   -3.6622    2.9270   -1.4404 H   0  0  0  0  0  0  0  0  0  0  0  0
   -2.5733    2.2329   -0.2111 H   0  0  0  0  0  0  0  0  0  0  0  0
   -6.9190    1.5341    0.8619 H   0  0  0  0  0  0  0  0  0  0  0  0
   -5.8207    1.3871    2.2810 H   0  0  0  0  0  0  0  0  0  0  0  0
   -6.7383    2.8902    1.9880 H   0  0  0  0  0  0  0  0  0  0  0  0
   -2.3615   -2.4016   -1.4612 H   0  0  0  0  0  0  0  0  0  0  0  0
   -3.1922   -1.5524   -2.7778 H   0  0  0  0  0  0  0  0  0  0  0  0
   -5.1384   -1.1490   -1.1921 H   0  0  0  0  0  0  0  0  0  0  0  0
   -4.8000   -2.8749   -1.4600 H   0  0  0  0  0  0  0  0  0  0  0  0
   -5.3864   -1.4391    3.3132 H   0  0  0  0  0  0  0  0  0  0  0  0
   -3.7077   -1.2851    2.7609 H   0  0  0  0  0  0  0  0  0  0  0  0
   -4.4821   -2.9063    2.8771 H   0  0  0  0  0  0  0  0  0  0  0  0
  1  2  1  0
  2  3  1  0
  3  4  1  0
  4  5  2  0
  5  6  1  0
  6  7  2  3
  7  8  1  0
  8  9  1  0
  9 10  1  0
  9 11  2  0
 11 12  1  0
 12 13  1  0
 13 14  2  0
 13 15  1  0
 12 16  2  0
 16 17  1  0
 17 18  1  0
 18 19  2  0
 18 20  1  0
  5 21  1  0
 21 22  1  0
 22 23  1  0
 23 24  1  0
 23 25  2  0
 21 26  2  0
 26 27  1  0
 27 28  1  0
 28 29  1  0
 29 30  1  0
 30 31  1  0
 31 32  1  0
 32 33  1  0
 32 34  2  0
 28 35  1  0
 35 36  1  0
 36 37  1  0
 37 38  1  0
 38 39  1  0
 38 40  2  0
 27  3  2  0
 17  8  2  0
  1 41  1  0
  1 42  1  0
  1 43  1  0
  4 44  1  0
 11 45  1  0
 16 46  1  0
 22 47  1  0
 24 48  1  0
 24 49  1  0
 24 50  1  0
 26 51  1  0
 29 52  1  0
 29 53  1  0
 30 54  1  0
 30 55  1  0
 33 56  1  0
 33 57  1  0
 33 58  1  0
 35 59  1  0
 35 60  1  0
 36 61  1  0
 36 62  1  0
 39 63  1  0
 39 64  1  0
 39 65  1  0
M  CHG  4  13   1  15  -1  18   1  20  -1
M  END
$$$$
