
     RDKit          3D

 20 20  0  0  0  0  0  0  0  0999 V2000
   -2.1306    1.3987    0.0942 C   0  0  0  0  0  0  0  0  0  0  0  0
   -0.7511    0.7968    0.0635 C   0  0  0  0  0  0  0  0  0  0  0  0
    0.3485    1.6688    0.1700 C   0  0  0  0  0  0  0  0  0  0  0  0
    1.6602    1.1905    0.1238 C   0  0  0  0  0  0  0  0  0  0  0  0
    1.8898   -0.1781   -0.0406 C   0  0  0  0  0  0  0  0  0  0  0  0
    3.2689   -0.6825   -0.0903 N   0  0  0  0  0  0  0  0  0  0  0  0
    4.1872    0.1482   -0.0565 O   0  0  0  0  0  0  0  0  0  0  0  0
    3.4292   -1.9085   -0.1591 O   0  0  0  0  0  0  0  0  0  0  0  0
    0.8167   -1.0690   -0.1598 C   0  0  0  0  0  0  0  0  0  0  0  0
   -0.5016   -0.5821   -0.1044 C   0  0  0  0  0  0  0  0  0  0  0  0
   -1.8199   -1.7704   -0.2959 S   0  0  0  0  0  0  0  0  0  0  0  0
   -2.9089   -1.1726   -1.0368 O   0  0  0  0  0  0  0  0  0  0  0  0
   -1.2469   -3.0492   -0.6606 O   0  0  0  0  0  0  0  0  0  0  0  0
   -2.4670   -1.9934    1.6293 Cl  0  0  0  0  0  0  0  0  0  0  0  0
   -2.1037    2.4320    0.4583 H   0  0  0  0  0  0  0  0  0  0  0  0
   -2.7888    0.8514    0.7737 H   0  0  0  0  0  0  0  0  0  0  0  0
   -2.5592    1.4155   -0.9122 H   0  0  0  0  0  0  0  0  0  0  0  0
    0.1898    2.7411    0.2882 H   0  0  0  0  0  0  0  0  0  0  0  0
    2.4842    1.8968    0.2127 H   0  0  0  0  0  0  0  0  0  0  0  0
    1.0031   -2.1341   -0.2976 H   0  0  0  0  0  0  0  0  0  0  0  0
  1  2  1  0
  2  3  1  0
  3  4  2  0
  4  5  1  0
  5  6  1  0
  6  7  2  0
  6  8  1  0
  5  9  2  0
  9 10  1  0
 10 11  1  0
 11 12  2  0
 11 13  2  0
 11 14  1  0
 10  2  2  0
  1 15  1  0
  1 16  1  0
  1 17  1  0
  3 18  1  0
  4 19  1  0
  9 20  1  0
M  CHG  2   6   1   8  -1
M  END
$$$$
