
     RDKit          3D

 15 15  0  0  0  0  0  0  0  0999 V2000
   -3.3105   -0.0923   -0.8160 O   0  0  0  0  0  0  0  0  0  0  0  0
   -2.5850    0.4508    0.0283 N   0  0  0  0  0  0  0  0  0  0  0  0
   -2.9877    1.2150    0.9162 O   0  0  0  0  0  0  0  0  0  0  0  0
   -1.1449    0.1694   -0.0260 C   0  0  0  0  0  0  0  0  0  0  0  0
   -0.6432   -0.6908   -1.0151 C   0  0  0  0  0  0  0  0  0  0  0  0
    0.7265   -0.9574   -1.0654 C   0  0  0  0  0  0  0  0  0  0  0  0
    1.5781   -0.3679   -0.1353 C   0  0  0  0  0  0  0  0  0  0  0  0
    2.9092   -0.6638   -0.2311 O   0  0  0  0  0  0  0  0  0  0  0  0
    1.0763    0.4888    0.8494 C   0  0  0  0  0  0  0  0  0  0  0  0
    2.1403    1.2133    1.9960 Cl  0  0  0  0  0  0  0  0  0  0  0  0
   -0.2885    0.7640    0.9116 C   0  0  0  0  0  0  0  0  0  0  0  0
   -1.2998   -1.1574   -1.7475 H   0  0  0  0  0  0  0  0  0  0  0  0
    1.1291   -1.6219   -1.8263 H   0  0  0  0  0  0  0  0  0  0  0  0
    3.3710   -0.1813    0.4805 H   0  0  0  0  0  0  0  0  0  0  0  0
   -0.6710    1.4315    1.6805 H   0  0  0  0  0  0  0  0  0  0  0  0
  1  2  2  0
  2  3  1  0
  2  4  1  0
  4  5  1  0
  5  6  2  0
  6  7  1  0
  7  8  1  0
  7  9  2  0
  9 10  1  0
  9 11  1  0
 11  4  2  0
  5 12  1  0
  6 13  1  0
  8 14  1  0
 11 15  1  0
M  CHG  2   2   1   3  -1
M  END
$$$$
