
     RDKit          3D

 32 32  0  0  0  0  0  0  0  0999 V2000
   -3.5966    2.9098    0.3936 C   0  0  0  0  0  0  0  0  0  0  0  0
   -2.2863    2.6032   -0.3021 C   0  0  0  0  0  0  0  0  0  0  0  0
   -2.2178    1.2068   -0.5387 O   0  0  0  0  0  0  0  0  0  0  0  0
   -0.7958    0.5688   -0.9851 P   0  0  0  0  0  0  0  0  0  0  0  0
   -0.0637    1.2196   -2.6604 S   0  0  0  0  0  0  0  0  0  0  0  0
   -1.1358   -1.0131   -0.9017 O   0  0  0  0  0  0  0  0  0  0  0  0
   -2.1046   -1.5433   -1.7906 C   0  0  0  0  0  0  0  0  0  0  0  0
   -2.4028   -2.9708   -1.3803 C   0  0  0  0  0  0  0  0  0  0  0  0
    0.0835    0.7980    0.3514 O   0  0  0  0  0  0  0  0  0  0  0  0
    1.3110    0.2615    0.6176 C   0  0  0  0  0  0  0  0  0  0  0  0
    1.9487    0.7581    1.7585 C   0  0  0  0  0  0  0  0  0  0  0  0
    3.2076    0.2813    2.1323 C   0  0  0  0  0  0  0  0  0  0  0  0
    3.8261   -0.7042    1.3545 C   0  0  0  0  0  0  0  0  0  0  0  0
    5.1481   -1.2142    1.7394 N   0  0  0  0  0  0  0  0  0  0  0  0
    5.6832   -0.7265    2.7452 O   0  0  0  0  0  0  0  0  0  0  0  0
    5.6499   -2.1034    1.0371 O   0  0  0  0  0  0  0  0  0  0  0  0
    3.1896   -1.2098    0.2136 C   0  0  0  0  0  0  0  0  0  0  0  0
    1.9284   -0.7245   -0.1509 C   0  0  0  0  0  0  0  0  0  0  0  0
   -3.6930    3.9813    0.5901 H   0  0  0  0  0  0  0  0  0  0  0  0
   -4.4441    2.5851   -0.2192 H   0  0  0  0  0  0  0  0  0  0  0  0
   -3.6644    2.3687    1.3432 H   0  0  0  0  0  0  0  0  0  0  0  0
   -1.4476    2.9215    0.3247 H   0  0  0  0  0  0  0  0  0  0  0  0
   -2.2384    3.1350   -1.2569 H   0  0  0  0  0  0  0  0  0  0  0  0
   -1.7115   -1.5246   -2.8113 H   0  0  0  0  0  0  0  0  0  0  0  0
   -3.0196   -0.9446   -1.7505 H   0  0  0  0  0  0  0  0  0  0  0  0
   -3.1447   -3.4214   -2.0454 H   0  0  0  0  0  0  0  0  0  0  0  0
   -2.7813   -3.0055   -0.3533 H   0  0  0  0  0  0  0  0  0  0  0  0
   -1.4915   -3.5775   -1.4044 H   0  0  0  0  0  0  0  0  0  0  0  0
    1.4641    1.5231    2.3617 H   0  0  0  0  0  0  0  0  0  0  0  0
    3.6852    0.6843    3.0230 H   0  0  0  0  0  0  0  0  0  0  0  0
    3.6567   -1.9784   -0.3998 H   0  0  0  0  0  0  0  0  0  0  0  0
    1.4578   -1.1439   -1.0354 H   0  0  0  0  0  0  0  0  0  0  0  0
  1  2  1  0
  2  3  1  0
  3  4  1  0
  4  5  2  0
  4  6  1  0
  6  7  1  0
  7  8  1  0
  4  9  1  0
  9 10  1  0
 10 11  1  0
 11 12  2  0
 12 13  1  0
 13 14  1  0
 14 15  2  0
 14 16  1  0
 13 17  2  0
 17 18  1  0
 18 10  2  0
  1 19  1  0
  1 20  1  0
  1 21  1  0
  2 22  1  0
  2 23  1  0
  7 24  1  0
  7 25  1  0
  8 26  1  0
  8 27  1  0
  8 28  1  0
 11 29  1  0
 12 30  1  0
 17 31  1  0
 18 32  1  0
M  CHG  2  14   1  16  -1
M  END
$$$$
