
     RDKit          3D

 23 25  0  0  0  0  0  0  0  0999 V2000
    5.1487   -0.3992   -0.1022 O   0  0  0  0  0  0  0  0  0  0  0  0
    4.3555    0.5006    0.2010 N   0  0  0  0  0  0  0  0  0  0  0  0
    4.6611    1.6355    0.5924 O   0  0  0  0  0  0  0  0  0  0  0  0
    2.9583    0.2260    0.0974 C   0  0  0  0  0  0  0  0  0  0  0  0
    1.8551    1.0030    0.3566 C   0  0  0  0  0  0  0  0  0  0  0  0
    0.7269    0.1799    0.0666 C   0  0  0  0  0  0  0  0  0  0  0  0
    1.2513   -1.0431   -0.3494 C   0  0  0  0  0  0  0  0  0  0  0  0
    0.4834   -2.1388   -0.7304 C   0  0  0  0  0  0  0  0  0  0  0  0
   -0.9059   -1.9795   -0.6851 C   0  0  0  0  0  0  0  0  0  0  0  0
   -1.4997   -0.7740   -0.2756 C   0  0  0  0  0  0  0  0  0  0  0  0
   -2.8942   -0.6254   -0.2340 C   0  0  0  0  0  0  0  0  0  0  0  0
   -3.4746    0.5784    0.1750 C   0  0  0  0  0  0  0  0  0  0  0  0
   -2.6725    1.6546    0.5495 C   0  0  0  0  0  0  0  0  0  0  0  0
   -1.2834    1.5352    0.5180 C   0  0  0  0  0  0  0  0  0  0  0  0
   -0.6869    0.3260    0.1072 C   0  0  0  0  0  0  0  0  0  0  0  0
    2.6144   -1.0157   -0.3308 O   0  0  0  0  0  0  0  0  0  0  0  0
    1.8605    2.0254    0.7073 H   0  0  0  0  0  0  0  0  0  0  0  0
    0.9429   -3.0683   -1.0461 H   0  0  0  0  0  0  0  0  0  0  0  0
   -1.5313   -2.8217   -0.9782 H   0  0  0  0  0  0  0  0  0  0  0  0
   -3.5449   -1.4489   -0.5209 H   0  0  0  0  0  0  0  0  0  0  0  0
   -4.5574    0.6750    0.2008 H   0  0  0  0  0  0  0  0  0  0  0  0
   -3.1307    2.5881    0.8667 H   0  0  0  0  0  0  0  0  0  0  0  0
   -0.6766    2.3867    0.8141 H   0  0  0  0  0  0  0  0  0  0  0  0
  1  2  2  0
  2  3  1  0
  2  4  1  0
  4  5  2  0
  5  6  1  0
  6  7  1  0
  7  8  2  0
  8  9  1  0
  9 10  2  0
 10 11  1  0
 11 12  2  0
 12 13  1  0
 13 14  2  0
 14 15  1  0
  7 16  1  0
 16  4  1  0
 15  6  2  0
 15 10  1  0
  5 17  1  0
  8 18  1  0
  9 19  1  0
 11 20  1  0
 12 21  1  0
 13 22  1  0
 14 23  1  0
M  CHG  2   2   1   3  -1
M  END
$$$$
