
     RDKit          3D

 32 33  0  0  0  0  0  0  0  0999 V2000
    0.4784    1.3717   -1.0662 O   0  0  0  0  0  0  0  0  0  0  0  0
    0.3504    0.1638   -1.2111 C   0  0  0  0  0  0  0  0  0  0  0  0
    1.4032   -0.6624   -1.5493 N   0  0  0  0  0  0  0  0  0  0  0  0
    2.7478   -0.1359   -1.6698 C   0  0  0  0  0  0  0  0  0  0  0  0
    3.5252   -0.3224   -0.3993 C   0  0  0  0  0  0  0  0  0  0  0  0
    3.3298    0.5113    0.7057 C   0  0  0  0  0  0  0  0  0  0  0  0
    4.0550    0.2940    1.8732 C   0  0  0  0  0  0  0  0  0  0  0  0
    4.9539   -0.7587    1.8997 C   0  0  0  0  0  0  0  0  0  0  0  0
    5.1677   -1.5894    0.8565 N   0  0  0  0  0  0  0  0  0  0  0  0
    4.4523   -1.3510   -0.2658 C   0  0  0  0  0  0  0  0  0  0  0  0
   -0.8168   -0.5598   -1.0920 N   0  0  0  0  0  0  0  0  0  0  0  0
   -2.0828   -0.0892   -0.6918 C   0  0  0  0  0  0  0  0  0  0  0  0
   -2.3144    1.1995   -0.2011 C   0  0  0  0  0  0  0  0  0  0  0  0
   -3.6004    1.5966    0.1861 C   0  0  0  0  0  0  0  0  0  0  0  0
   -4.6635    0.6936    0.0846 C   0  0  0  0  0  0  0  0  0  0  0  0
   -6.0133    1.1045    0.4900 N   0  0  0  0  0  0  0  0  0  0  0  0
   -6.1609    2.2550    0.9257 O   0  0  0  0  0  0  0  0  0  0  0  0
   -6.9265    0.2745    0.3734 O   0  0  0  0  0  0  0  0  0  0  0  0
   -4.4465   -0.6013   -0.3988 C   0  0  0  0  0  0  0  0  0  0  0  0
   -3.1571   -0.9861   -0.7824 C   0  0  0  0  0  0  0  0  0  0  0  0
    1.3337   -1.6176   -1.2339 H   0  0  0  0  0  0  0  0  0  0  0  0
    3.2268   -0.6791   -2.4920 H   0  0  0  0  0  0  0  0  0  0  0  0
    2.7290    0.9229   -1.9519 H   0  0  0  0  0  0  0  0  0  0  0  0
    2.6129    1.3292    0.6588 H   0  0  0  0  0  0  0  0  0  0  0  0
    3.9204    0.9304    2.7405 H   0  0  0  0  0  0  0  0  0  0  0  0
    5.5432   -0.9686    2.7877 H   0  0  0  0  0  0  0  0  0  0  0  0
    4.6556   -2.0402   -1.0814 H   0  0  0  0  0  0  0  0  0  0  0  0
   -0.7767   -1.5016   -1.4512 H   0  0  0  0  0  0  0  0  0  0  0  0
   -1.5103    1.9236   -0.1024 H   0  0  0  0  0  0  0  0  0  0  0  0
   -3.7476    2.6074    0.5617 H   0  0  0  0  0  0  0  0  0  0  0  0
   -5.2611   -1.3177   -0.4829 H   0  0  0  0  0  0  0  0  0  0  0  0
   -3.0074   -1.9968   -1.1554 H   0  0  0  0  0  0  0  0  0  0  0  0
  1  2  2  0
  2  3  1  0
  3  4  1  0
  4  5  1  0
  5  6  1  0
  6  7  2  0
  7  8  1  0
  8  9  2  0
  9 10  1  0
  2 11  1  0
 11 12  1  0
 12 13  1  0
 13 14  2  0
 14 15  1  0
 15 16  1  0
 16 17  2  0
 16 18  1  0
 15 19  2  0
 19 20  1  0
 10  5  2  0
 20 12  2  0
  3 21  1  0
  4 22  1  0
  4 23  1  0
  6 24  1  0
  7 25  1  0
  8 26  1  0
 10 27  1  0
 11 28  1  0
 13 29  1  0
 14 30  1  0
 19 31  1  0
 20 32  1  0
M  CHG  2  16   1  18  -1
M  END
$$$$
