
     RDKit          3D

 17 17  0  0  0  0  0  0  0  0999 V2000
   -3.2414    1.2612    0.3156 O   0  0  0  0  0  0  0  0  0  0  0  0
   -2.6088    0.2251    0.2369 C   0  0  0  0  0  0  0  0  0  0  0  0
   -3.2221   -0.9662    0.1330 O   0  0  0  0  0  0  0  0  0  0  0  0
   -1.1294    0.1107    0.2424 C   0  0  0  0  0  0  0  0  0  0  0  0
   -0.4787   -1.1279    0.1474 C   0  0  0  0  0  0  0  0  0  0  0  0
    0.9190   -1.1921    0.1561 C   0  0  0  0  0  0  0  0  0  0  0  0
    1.6659   -0.0103    0.2606 C   0  0  0  0  0  0  0  0  0  0  0  0
    3.1335   -0.0747    0.2701 N   0  0  0  0  0  0  0  0  0  0  0  0
    3.7562    0.9924    0.3639 O   0  0  0  0  0  0  0  0  0  0  0  0
    3.6612   -1.1924    0.1837 O   0  0  0  0  0  0  0  0  0  0  0  0
    1.0240    1.2319    0.3560 C   0  0  0  0  0  0  0  0  0  0  0  0
   -0.3735    1.2876    0.3465 C   0  0  0  0  0  0  0  0  0  0  0  0
   -4.1772   -0.7432    0.1417 H   0  0  0  0  0  0  0  0  0  0  0  0
   -1.0513   -2.0499    0.0660 H   0  0  0  0  0  0  0  0  0  0  0  0
    1.4044   -2.1636    0.0813 H   0  0  0  0  0  0  0  0  0  0  0  0
    1.5902    2.1580    0.4377 H   0  0  0  0  0  0  0  0  0  0  0  0
   -0.8723    2.2534    0.4208 H   0  0  0  0  0  0  0  0  0  0  0  0
  1  2  2  0
  2  3  1  0
  2  4  1  0
  4  5  1  0
  5  6  2  0
  6  7  1  0
  7  8  1  0
  8  9  2  0
  8 10  1  0
  7 11  2  0
 11 12  1  0
 12  4  2  0
  3 13  1  0
  5 14  1  0
  6 15  1  0
 11 16  1  0
 12 17  1  0
M  CHG  2   8   1  10  -1
M  END
$$$$
