
     RDKit          3D

 20 20  0  0  0  0  0  0  0  0999 V2000
    3.0004    0.7838    0.0279 C   0  0  0  0  0  0  0  0  0  0  0  0
    1.5904    0.2746   -0.0322 C   0  0  0  0  0  0  0  0  0  0  0  0
    1.3352   -1.0915   -0.1979 C   0  0  0  0  0  0  0  0  0  0  0  0
    0.0235   -1.5799   -0.2186 C   0  0  0  0  0  0  0  0  0  0  0  0
   -1.0716   -0.7178   -0.0589 C   0  0  0  0  0  0  0  0  0  0  0  0
   -2.4609   -1.2902   -0.0835 C   0  0  0  0  0  0  0  0  0  0  0  0
   -0.8021    0.6535    0.1017 C   0  0  0  0  0  0  0  0  0  0  0  0
   -1.8834    1.6222    0.2512 N   0  0  0  0  0  0  0  0  0  0  0  0
   -2.8125    1.5782   -0.5666 O   0  0  0  0  0  0  0  0  0  0  0  0
   -1.7859    2.4386    1.1783 O   0  0  0  0  0  0  0  0  0  0  0  0
    0.5117    1.1494    0.1306 C   0  0  0  0  0  0  0  0  0  0  0  0
    3.0620    1.8087   -0.3528 H   0  0  0  0  0  0  0  0  0  0  0  0
    3.6646    0.1685   -0.5881 H   0  0  0  0  0  0  0  0  0  0  0  0
    3.3600    0.7676    1.0613 H   0  0  0  0  0  0  0  0  0  0  0  0
    2.1610   -1.7920   -0.3124 H   0  0  0  0  0  0  0  0  0  0  0  0
   -0.1336   -2.6490   -0.3546 H   0  0  0  0  0  0  0  0  0  0  0  0
   -3.0680   -0.8783    0.7290 H   0  0  0  0  0  0  0  0  0  0  0  0
   -2.4439   -2.3766    0.0565 H   0  0  0  0  0  0  0  0  0  0  0  0
   -2.9402   -1.0832   -1.0452 H   0  0  0  0  0  0  0  0  0  0  0  0
    0.6933    2.2135    0.2746 H   0  0  0  0  0  0  0  0  0  0  0  0
  1  2  1  0
  2  3  1  0
  3  4  2  0
  4  5  1  0
  5  6  1  0
  5  7  2  0
  7  8  1  0
  8  9  2  0
  8 10  1  0
  7 11  1  0
 11  2  2  0
  1 12  1  0
  1 13  1  0
  1 14  1  0
  3 15  1  0
  4 16  1  0
  6 17  1  0
  6 18  1  0
  6 19  1  0
 11 20  1  0
M  CHG  2   8   1  10  -1
M  END
$$$$
