
     RDKit          3D

 51 54  0  0  0  0  0  0  0  0999 V2000
   -0.4763    0.4242   -1.8318 O   0  0  0  0  0  0  0  0  0  0  0  0
   -0.5392   -0.2747   -0.8315 C   0  0  0  0  0  0  0  0  0  0  0  0
    0.6833   -1.0133   -0.3049 C   0  0  0  0  0  0  0  0  0  0  0  0
    1.7894   -0.3390   -0.3268 N   0  0  0  0  0  0  0  0  0  0  0  0
    2.8774   -0.9210    0.2252 N   0  0  0  0  0  0  0  0  0  0  0  0
    4.1586   -0.4212   -0.1103 C   0  0  0  0  0  0  0  0  0  0  0  0
    4.3512    0.6069   -1.0404 C   0  0  0  0  0  0  0  0  0  0  0  0
    5.6503    1.0430   -1.3406 C   0  0  0  0  0  0  0  0  0  0  0  0
    5.8459    2.1365   -2.3004 N   0  0  0  0  0  0  0  0  0  0  0  0
    7.0114    2.4490   -2.5853 O   0  0  0  0  0  0  0  0  0  0  0  0
    4.8391    2.6837   -2.7705 O   0  0  0  0  0  0  0  0  0  0  0  0
    6.7678    0.4474   -0.7371 C   0  0  0  0  0  0  0  0  0  0  0  0
    6.5832   -0.6078    0.1549 C   0  0  0  0  0  0  0  0  0  0  0  0
    5.2928   -1.0462    0.4404 C   0  0  0  0  0  0  0  0  0  0  0  0
    5.1723   -2.1361    1.2637 O   0  0  0  0  0  0  0  0  0  0  0  0
    0.3796   -2.3755    0.1934 C   0  0  0  0  0  0  0  0  0  0  0  0
    1.5120   -3.6692    0.0913 S   0  0  0  0  0  0  0  0  0  0  0  0
    2.6346   -3.4616    0.9864 O   0  0  0  0  0  0  0  0  0  0  0  0
    0.8248   -4.9440    0.0900 O   0  0  0  0  0  0  0  0  0  0  0  0
    2.0562   -3.4897   -1.4129 O   0  0  0  0  0  0  0  0  0  0  0  0
   -0.8439   -2.6172    0.6985 C   0  0  0  0  0  0  0  0  0  0  0  0
   -1.8982   -1.5946    0.7238 C   0  0  0  0  0  0  0  0  0  0  0  0
   -3.0543   -1.8015    1.4762 C   0  0  0  0  0  0  0  0  0  0  0  0
   -4.0715   -0.8459    1.4383 C   0  0  0  0  0  0  0  0  0  0  0  0
   -5.5469   -1.0797    2.3960 S   0  0  0  0  0  0  0  0  0  0  0  0
   -5.3729   -2.2616    3.2093 O   0  0  0  0  0  0  0  0  0  0  0  0
   -6.6760   -0.9220    1.5083 O   0  0  0  0  0  0  0  0  0  0  0  0
   -5.5749    0.1890    3.3901 O   0  0  0  0  0  0  0  0  0  0  0  0
   -3.9639    0.3034    0.6422 C   0  0  0  0  0  0  0  0  0  0  0  0
   -2.8287    0.5284   -0.1445 C   0  0  0  0  0  0  0  0  0  0  0  0
   -2.6715    1.6764   -0.9390 N   0  0  0  0  0  0  0  0  0  0  0  0
   -3.4187    2.8343   -1.1374 C   0  0  0  0  0  0  0  0  0  0  0  0
   -2.9918    3.6321   -2.1058 N   0  0  0  0  0  0  0  0  0  0  0  0
   -3.7060    4.7382   -2.2781 C   0  0  0  0  0  0  0  0  0  0  0  0
   -3.1806    5.7835   -3.5218 Cl  0  0  0  0  0  0  0  0  0  0  0  0
   -4.7722    5.1249   -1.6061 N   0  0  0  0  0  0  0  0  0  0  0  0
   -5.0852    4.2508   -0.6716 C   0  0  0  0  0  0  0  0  0  0  0  0
   -6.4486    4.6247    0.2890 Cl  0  0  0  0  0  0  0  0  0  0  0  0
   -4.4714    3.1101   -0.3804 N   0  0  0  0  0  0  0  0  0  0  0  0
   -1.7941   -0.4347   -0.0668 C   0  0  0  0  0  0  0  0  0  0  0  0
    2.8453   -1.1191    1.2314 H   0  0  0  0  0  0  0  0  0  0  0  0
    3.4865    1.0721   -1.5107 H   0  0  0  0  0  0  0  0  0  0  0  0
    7.7791    0.7807   -0.9617 H   0  0  0  0  0  0  0  0  0  0  0  0
    7.4383   -1.1011    0.6099 H   0  0  0  0  0  0  0  0  0  0  0  0
    4.3106   -2.5687    1.0802 H   0  0  0  0  0  0  0  0  0  0  0  0
    2.5531   -4.2940   -1.6728 H   0  0  0  0  0  0  0  0  0  0  0  0
   -1.1099   -3.6037    1.0777 H   0  0  0  0  0  0  0  0  0  0  0  0
   -3.1692   -2.6951    2.0887 H   0  0  0  0  0  0  0  0  0  0  0  0
   -6.4880    0.5489    3.3944 H   0  0  0  0  0  0  0  0  0  0  0  0
   -4.7952    1.0034    0.6371 H   0  0  0  0  0  0  0  0  0  0  0  0
   -1.8936    1.6468   -1.6050 H   0  0  0  0  0  0  0  0  0  0  0  0
  1  2  2  0
  2  3  1  0
  3  4  2  3
  4  5  1  0
  5  6  1  0
  6  7  1  0
  7  8  2  0
  8  9  1  0
  9 10  2  0
  9 11  1  0
  8 12  1  0
 12 13  2  0
 13 14  1  0
 14 15  1  0
  3 16  1  0
 16 17  1  0
 17 18  2  0
 17 19  2  0
 17 20  1  0
 16 21  2  0
 21 22  1  0
 22 23  2  0
 23 24  1  0
 24 25  1  0
 25 26  2  0
 25 27  2  0
 25 28  1  0
 24 29  2  0
 29 30  1  0
 30 31  1  0
 31 32  1  0
 32 33  2  0
 33 34  1  0
 34 35  1  0
 34 36  2  0
 36 37  1  0
 37 38  1  0
 37 39  2  0
 30 40  2  0
 40  2  1  0
 14  6  2  0
 40 22  1  0
 39 32  1  0
  5 41  1  0
  7 42  1  0
 12 43  1  0
 13 44  1  0
 15 45  1  0
 20 46  1  0
 21 47  1  0
 23 48  1  0
 28 49  1  0
 29 50  1  0
 31 51  1  0
M  CHG  2   9   1  11  -1
M  END
$$$$
