
     RDKit          3D

 18 18  0  0  0  0  0  0  0  0999 V2000
   -2.2730    1.4211    0.1435 N   0  0  0  0  0  0  0  0  0  0  0  0
   -1.0455    0.7434    0.2163 C   0  0  0  0  0  0  0  0  0  0  0  0
    0.0378    1.4156    0.8041 C   0  0  0  0  0  0  0  0  0  0  0  0
    1.3277    0.8719    0.7946 C   0  0  0  0  0  0  0  0  0  0  0  0
    1.5608   -0.3495    0.1532 C   0  0  0  0  0  0  0  0  0  0  0  0
    2.9141   -0.9202    0.1442 N   0  0  0  0  0  0  0  0  0  0  0  0
    3.8231   -0.2530    0.6565 O   0  0  0  0  0  0  0  0  0  0  0  0
    3.0615   -2.0367   -0.3704 O   0  0  0  0  0  0  0  0  0  0  0  0
    0.5176   -1.0235   -0.4886 C   0  0  0  0  0  0  0  0  0  0  0  0
   -0.7710   -0.4607   -0.4666 C   0  0  0  0  0  0  0  0  0  0  0  0
   -1.8375   -1.1820   -1.1635 N   0  0  0  0  0  0  0  0  0  0  0  0
   -2.9857   -1.1086   -0.6988 O   0  0  0  0  0  0  0  0  0  0  0  0
   -1.5196   -1.8408   -2.1636 O   0  0  0  0  0  0  0  0  0  0  0  0
   -2.4496    2.0758    0.9008 H   0  0  0  0  0  0  0  0  0  0  0  0
   -3.0784    0.8068   -0.0112 H   0  0  0  0  0  0  0  0  0  0  0  0
   -0.1152    2.3851    1.2766 H   0  0  0  0  0  0  0  0  0  0  0  0
    2.1347    1.4208    1.2781 H   0  0  0  0  0  0  0  0  0  0  0  0
    0.6981   -1.9654   -1.0051 H   0  0  0  0  0  0  0  0  0  0  0  0
  1  2  1  0
  2  3  1  0
  3  4  2  0
  4  5  1  0
  5  6  1  0
  6  7  2  0
  6  8  1  0
  5  9  2  0
  9 10  1  0
 10 11  1  0
 11 12  2  0
 11 13  1  0
 10  2  2  0
  1 14  1  0
  1 15  1  0
  3 16  1  0
  4 17  1  0
  9 18  1  0
M  CHG  4   6   1   8  -1  11   1  13  -1
M  END
$$$$
