
     RDKit          3D

 31 31  0  0  0  0  0  0  0  0999 V2000
   -4.9007   -0.8605   -0.4602 C   0  0  0  0  0  0  0  0  0  0  0  0
   -4.0867   -0.4406    0.7559 C   0  0  0  0  0  0  0  0  0  0  0  0
   -2.5932   -0.3713    0.4560 C   0  0  0  0  0  0  0  0  0  0  0  0
   -2.3569    0.6354   -0.5129 O   0  0  0  0  0  0  0  0  0  0  0  0
   -0.8778    0.8625   -1.1415 P   0  0  0  0  0  0  0  0  0  0  0  0
   -0.6589   -0.6086   -2.1470 C   0  0  0  0  0  0  0  0  0  0  0  0
   -0.7168    2.5738   -2.0445 S   0  0  0  0  0  0  0  0  0  0  0  0
    0.0687    0.6056    0.1420 O   0  0  0  0  0  0  0  0  0  0  0  0
    1.4314    0.5435    0.1822 C   0  0  0  0  0  0  0  0  0  0  0  0
    2.2774    0.7943   -0.8963 C   0  0  0  0  0  0  0  0  0  0  0  0
    3.6656    0.7044   -0.7350 C   0  0  0  0  0  0  0  0  0  0  0  0
    4.2011    0.3652    0.5140 C   0  0  0  0  0  0  0  0  0  0  0  0
    5.6566    0.2745    0.6857 N   0  0  0  0  0  0  0  0  0  0  0  0
    6.3684    0.4981   -0.3041 O   0  0  0  0  0  0  0  0  0  0  0  0
    6.0863   -0.0244    1.8091 O   0  0  0  0  0  0  0  0  0  0  0  0
    3.3560    0.1152    1.6011 C   0  0  0  0  0  0  0  0  0  0  0  0
    1.9728    0.2076    1.4275 C   0  0  0  0  0  0  0  0  0  0  0  0
   -4.7951   -0.1403   -1.2781 H   0  0  0  0  0  0  0  0  0  0  0  0
   -5.9623   -0.9200   -0.2003 H   0  0  0  0  0  0  0  0  0  0  0  0
   -4.5844   -1.8437   -0.8236 H   0  0  0  0  0  0  0  0  0  0  0  0
   -4.2630   -1.1508    1.5719 H   0  0  0  0  0  0  0  0  0  0  0  0
   -4.4396    0.5435    1.0873 H   0  0  0  0  0  0  0  0  0  0  0  0
   -2.2349   -1.3399    0.0961 H   0  0  0  0  0  0  0  0  0  0  0  0
   -2.0530   -0.1165    1.3733 H   0  0  0  0  0  0  0  0  0  0  0  0
    0.3073   -0.5966   -2.6584 H   0  0  0  0  0  0  0  0  0  0  0  0
   -0.7044   -1.5204   -1.5460 H   0  0  0  0  0  0  0  0  0  0  0  0
   -1.4415   -0.6624   -2.9096 H   0  0  0  0  0  0  0  0  0  0  0  0
    1.9016    1.0782   -1.8739 H   0  0  0  0  0  0  0  0  0  0  0  0
    4.3107    0.9098   -1.5883 H   0  0  0  0  0  0  0  0  0  0  0  0
    3.7518   -0.1414    2.5812 H   0  0  0  0  0  0  0  0  0  0  0  0
    1.3135    0.0259    2.2740 H   0  0  0  0  0  0  0  0  0  0  0  0
  1  2  1  0
  2  3  1  0
  3  4  1  0
  4  5  1  0
  5  6  1  0
  5  7  2  0
  5  8  1  0
  8  9  1  0
  9 10  1  0
 10 11  2  0
 11 12  1  0
 12 13  1  0
 13 14  2  0
 13 15  1  0
 12 16  2  0
 16 17  1  0
 17  9  2  0
  1 18  1  0
  1 19  1  0
  1 20  1  0
  2 21  1  0
  2 22  1  0
  3 23  1  0
  3 24  1  0
  6 25  1  0
  6 26  1  0
  6 27  1  0
 10 28  1  0
 11 29  1  0
 16 30  1  0
 17 31  1  0
M  CHG  2  13   1  15  -1
M  END
$$$$
