
     RDKit          3D

 16 16  0  0  0  0  0  0  0  0999 V2000
   -2.5201    0.6892   -0.3286 N   0  0  0  0  0  0  0  0  0  0  0  0
   -1.2417    0.1313   -0.2308 C   0  0  0  0  0  0  0  0  0  0  0  0
   -1.0885   -1.2534   -0.0998 C   0  0  0  0  0  0  0  0  0  0  0  0
    0.1691   -1.8228    0.1216 C   0  0  0  0  0  0  0  0  0  0  0  0
    1.2894   -1.0059    0.2567 C   0  0  0  0  0  0  0  0  0  0  0  0
    1.1326    0.3834    0.1854 C   0  0  0  0  0  0  0  0  0  0  0  0
    2.3000    1.2551    0.3566 N   0  0  0  0  0  0  0  0  0  0  0  0
    3.3847    0.7200    0.6282 O   0  0  0  0  0  0  0  0  0  0  0  0
    2.1363    2.4755    0.2147 O   0  0  0  0  0  0  0  0  0  0  0  0
   -0.1295    0.9532   -0.0373 C   0  0  0  0  0  0  0  0  0  0  0  0
   -3.2112    0.0812   -0.7578 H   0  0  0  0  0  0  0  0  0  0  0  0
   -2.5429    1.6286   -0.7146 H   0  0  0  0  0  0  0  0  0  0  0  0
   -1.9559   -1.9062   -0.1695 H   0  0  0  0  0  0  0  0  0  0  0  0
    0.2682   -2.9029    0.2022 H   0  0  0  0  0  0  0  0  0  0  0  0
    2.2621   -1.4599    0.4328 H   0  0  0  0  0  0  0  0  0  0  0  0
   -0.2527    2.0335   -0.0599 H   0  0  0  0  0  0  0  0  0  0  0  0
  1  2  1  0
  2  3  1  0
  3  4  2  0
  4  5  1  0
  5  6  2  0
  6  7  1  0
  7  8  2  0
  7  9  1  0
  6 10  1  0
 10  2  2  0
  1 11  1  0
  1 12  1  0
  3 13  1  0
  4 14  1  0
  5 15  1  0
 10 16  1  0
M  CHG  2   7   1   9  -1
M  END
$$$$
