
     RDKit          3D

 17 17  0  0  0  0  0  0  0  0999 V2000
   -3.6379   -0.2578    0.9572 O   0  0  0  0  0  0  0  0  0  0  0  0
   -2.6485   -0.8845    0.5528 N   0  0  0  0  0  0  0  0  0  0  0  0
   -2.6635   -2.0717    0.1986 O   0  0  0  0  0  0  0  0  0  0  0  0
   -1.3660   -0.1707    0.4885 C   0  0  0  0  0  0  0  0  0  0  0  0
   -1.2968    1.1676    0.8954 C   0  0  0  0  0  0  0  0  0  0  0  0
   -0.0764    1.8408    0.8376 C   0  0  0  0  0  0  0  0  0  0  0  0
    1.0666    1.1836    0.3748 C   0  0  0  0  0  0  0  0  0  0  0  0
    1.0067   -0.1562   -0.0443 C   0  0  0  0  0  0  0  0  0  0  0  0
    2.2488   -0.8707   -0.5237 C   0  0  0  0  0  0  0  0  0  0  0  0
    3.2066   -0.0249   -0.9936 F   0  0  0  0  0  0  0  0  0  0  0  0
    2.8379   -1.5957    0.4651 F   0  0  0  0  0  0  0  0  0  0  0  0
    1.9956   -1.7463   -1.5346 F   0  0  0  0  0  0  0  0  0  0  0  0
   -0.2218   -0.8356    0.0226 C   0  0  0  0  0  0  0  0  0  0  0  0
   -2.1767    1.6951    1.2592 H   0  0  0  0  0  0  0  0  0  0  0  0
   -0.0139    2.8801    1.1553 H   0  0  0  0  0  0  0  0  0  0  0  0
    2.0123    1.7254    0.3405 H   0  0  0  0  0  0  0  0  0  0  0  0
   -0.2731   -1.8785   -0.2918 H   0  0  0  0  0  0  0  0  0  0  0  0
  1  2  2  0
  2  3  1  0
  2  4  1  0
  4  5  1  0
  5  6  2  0
  6  7  1  0
  7  8  2  0
  8  9  1  0
  9 10  1  0
  9 11  1  0
  9 12  1  0
  8 13  1  0
 13  4  2  0
  5 14  1  0
  6 15  1  0
  7 16  1  0
 13 17  1  0
M  CHG  2   2   1   3  -1
M  END
$$$$
