
     RDKit          3D

 35 36  0  0  0  0  0  0  0  0999 V2000
   -4.2620    1.5941    1.6134 C   0  0  0  0  0  0  0  0  0  0  0  0
   -3.2077    1.0418    0.6717 C   0  0  0  0  0  0  0  0  0  0  0  0
   -2.5996   -0.0906    1.3060 O   0  0  0  0  0  0  0  0  0  0  0  0
   -1.9373   -0.8924    0.4170 C   0  0  0  0  0  0  0  0  0  0  0  0
   -0.8374   -0.4090   -0.2967 C   0  0  0  0  0  0  0  0  0  0  0  0
   -0.1246   -1.2683   -1.1425 C   0  0  0  0  0  0  0  0  0  0  0  0
    0.9440   -0.8420   -1.9008 O   0  0  0  0  0  0  0  0  0  0  0  0
    1.9032   -0.0977   -1.2489 C   0  0  0  0  0  0  0  0  0  0  0  0
    2.5995   -0.6343   -0.1604 C   0  0  0  0  0  0  0  0  0  0  0  0
    3.5884    0.1195    0.4761 C   0  0  0  0  0  0  0  0  0  0  0  0
    3.9086    1.4075    0.0189 C   0  0  0  0  0  0  0  0  0  0  0  0
    4.9564    2.2384    0.7195 C   0  0  0  0  0  0  0  0  0  0  0  0
    5.6605    3.0323   -0.1340 F   0  0  0  0  0  0  0  0  0  0  0  0
    5.8812    1.4902    1.3813 F   0  0  0  0  0  0  0  0  0  0  0  0
    4.4127    3.0725    1.6468 F   0  0  0  0  0  0  0  0  0  0  0  0
    3.2142    1.9299   -1.0862 C   0  0  0  0  0  0  0  0  0  0  0  0
    2.2243    1.1774   -1.7228 C   0  0  0  0  0  0  0  0  0  0  0  0
    1.4021    1.8676   -3.0738 Cl  0  0  0  0  0  0  0  0  0  0  0  0
   -0.5120   -2.6029   -1.2965 C   0  0  0  0  0  0  0  0  0  0  0  0
   -1.5938   -3.1007   -0.5705 C   0  0  0  0  0  0  0  0  0  0  0  0
   -2.2919   -2.2376    0.2842 C   0  0  0  0  0  0  0  0  0  0  0  0
   -3.4231   -2.7679    1.0193 N   0  0  0  0  0  0  0  0  0  0  0  0
   -4.5235   -2.2250    0.8460 O   0  0  0  0  0  0  0  0  0  0  0  0
   -3.2143   -3.7642    1.7270 O   0  0  0  0  0  0  0  0  0  0  0  0
   -4.7322    2.4870    1.1923 H   0  0  0  0  0  0  0  0  0  0  0  0
   -3.8217    1.8485    2.5830 H   0  0  0  0  0  0  0  0  0  0  0  0
   -5.0374    0.8447    1.8023 H   0  0  0  0  0  0  0  0  0  0  0  0
   -3.6826    0.7544   -0.2751 H   0  0  0  0  0  0  0  0  0  0  0  0
   -2.4515    1.8120    0.4828 H   0  0  0  0  0  0  0  0  0  0  0  0
   -0.5329    0.6273   -0.1889 H   0  0  0  0  0  0  0  0  0  0  0  0
    2.3772   -1.6379    0.1944 H   0  0  0  0  0  0  0  0  0  0  0  0
    4.1146   -0.3081    1.3306 H   0  0  0  0  0  0  0  0  0  0  0  0
    3.4509    2.9294   -1.4503 H   0  0  0  0  0  0  0  0  0  0  0  0
    0.0359   -3.2536   -1.9743 H   0  0  0  0  0  0  0  0  0  0  0  0
   -1.8882   -4.1425   -0.6749 H   0  0  0  0  0  0  0  0  0  0  0  0
  1  2  1  0
  2  3  1  0
  3  4  1  0
  4  5  1  0
  5  6  2  0
  6  7  1  0
  7  8  1  0
  8  9  1  0
  9 10  2  0
 10 11  1  0
 11 12  1  0
 12 13  1  0
 12 14  1  0
 12 15  1  0
 11 16  2  0
 16 17  1  0
 17 18  1  0
  6 19  1  0
 19 20  2  0
 20 21  1  0
 21 22  1  0
 22 23  2  0
 22 24  1  0
 21  4  2  0
 17  8  2  0
  1 25  1  0
  1 26  1  0
  1 27  1  0
  2 28  1  0
  2 29  1  0
  5 30  1  0
  9 31  1  0
 10 32  1  0
 16 33  1  0
 19 34  1  0
 20 35  1  0
M  CHG  2  22   1  24  -1
M  END
$$$$
