
     RDKit          3D

 32 33  0  0  0  0  0  0  0  0999 V2000
   -0.4742   -3.0959    1.3078 C   0  0  0  0  0  0  0  0  0  0  0  0
    0.6020   -2.3873    0.0509 P   0  0  0  0  0  0  0  0  0  0  0  0
    1.6883   -3.7122   -0.8750 S   0  0  0  0  0  0  0  0  0  0  0  0
    1.4003   -1.2598    0.8892 O   0  0  0  0  0  0  0  0  0  0  0  0
    2.2370   -0.3065    0.3792 C   0  0  0  0  0  0  0  0  0  0  0  0
    2.9067    0.4744    1.3234 C   0  0  0  0  0  0  0  0  0  0  0  0
    3.7711    1.4895    0.9123 C   0  0  0  0  0  0  0  0  0  0  0  0
    3.9655    1.7270   -0.4464 C   0  0  0  0  0  0  0  0  0  0  0  0
    3.2955    0.9497   -1.3899 C   0  0  0  0  0  0  0  0  0  0  0  0
    2.4292   -0.0670   -0.9788 C   0  0  0  0  0  0  0  0  0  0  0  0
   -0.4155   -1.5739   -0.9048 O   0  0  0  0  0  0  0  0  0  0  0  0
   -1.3154   -0.5962   -0.5981 C   0  0  0  0  0  0  0  0  0  0  0  0
   -1.3413    0.1360    0.5861 C   0  0  0  0  0  0  0  0  0  0  0  0
   -2.3089    1.1301    0.7770 C   0  0  0  0  0  0  0  0  0  0  0  0
   -3.2487    1.3901   -0.2286 C   0  0  0  0  0  0  0  0  0  0  0  0
   -4.2630    2.4327   -0.0283 N   0  0  0  0  0  0  0  0  0  0  0  0
   -5.0589    2.6477   -0.9532 O   0  0  0  0  0  0  0  0  0  0  0  0
   -4.2647    3.0329    1.0559 O   0  0  0  0  0  0  0  0  0  0  0  0
   -3.2236    0.6637   -1.4233 C   0  0  0  0  0  0  0  0  0  0  0  0
   -2.2523   -0.3248   -1.6011 C   0  0  0  0  0  0  0  0  0  0  0  0
    0.1203   -3.6524    2.0388 H   0  0  0  0  0  0  0  0  0  0  0  0
   -1.1892   -3.7859    0.8498 H   0  0  0  0  0  0  0  0  0  0  0  0
   -1.0359   -2.3343    1.8523 H   0  0  0  0  0  0  0  0  0  0  0  0
    2.7614    0.2920    2.3849 H   0  0  0  0  0  0  0  0  0  0  0  0
    4.2941    2.0918    1.6506 H   0  0  0  0  0  0  0  0  0  0  0  0
    4.6407    2.5148   -0.7709 H   0  0  0  0  0  0  0  0  0  0  0  0
    3.4496    1.1328   -2.4507 H   0  0  0  0  0  0  0  0  0  0  0  0
    1.9261   -0.6477   -1.7449 H   0  0  0  0  0  0  0  0  0  0  0  0
   -0.6198   -0.0217    1.3802 H   0  0  0  0  0  0  0  0  0  0  0  0
   -2.3096    1.6946    1.7081 H   0  0  0  0  0  0  0  0  0  0  0  0
   -3.9409    0.8531   -2.2193 H   0  0  0  0  0  0  0  0  0  0  0  0
   -2.2261   -0.8875   -2.5329 H   0  0  0  0  0  0  0  0  0  0  0  0
  1  2  1  0
  2  3  2  0
  2  4  1  0
  4  5  1  0
  5  6  2  0
  6  7  1  0
  7  8  2  0
  8  9  1  0
  9 10  2  0
  2 11  1  0
 11 12  1  0
 12 13  1  0
 13 14  2  0
 14 15  1  0
 15 16  1  0
 16 17  2  0
 16 18  1  0
 15 19  2  0
 19 20  1  0
 10  5  1  0
 20 12  2  0
  1 21  1  0
  1 22  1  0
  1 23  1  0
  6 24  1  0
  7 25  1  0
  8 26  1  0
  9 27  1  0
 10 28  1  0
 13 29  1  0
 14 30  1  0
 19 31  1  0
 20 32  1  0
M  CHG  2  16   1  18  -1
M  END
$$$$
