
     RDKit          3D

 36 36  0  0  0  0  0  0  0  0999 V2000
   -2.5565   -2.3296    0.7069 C   0  0  0  0  0  0  0  0  0  0  0  0
   -1.7422   -1.1214    0.2868 C   0  0  0  0  0  0  0  0  0  0  0  0
   -2.3405   -0.0199   -0.3430 C   0  0  0  0  0  0  0  0  0  0  0  0
   -3.7678   -0.0617   -0.6195 N   0  0  0  0  0  0  0  0  0  0  0  0
   -4.1062   -0.5249   -1.7143 O   0  0  0  0  0  0  0  0  0  0  0  0
   -4.5189    0.3691    0.2632 O   0  0  0  0  0  0  0  0  0  0  0  0
   -1.6163    1.1263   -0.7029 C   0  0  0  0  0  0  0  0  0  0  0  0
   -2.2959    2.3221   -1.3412 C   0  0  0  0  0  0  0  0  0  0  0  0
   -0.2061    1.1094   -0.4808 C   0  0  0  0  0  0  0  0  0  0  0  0
    0.4630    2.3656   -0.7925 N   0  0  0  0  0  0  0  0  0  0  0  0
    0.6759    2.6041   -1.9880 O   0  0  0  0  0  0  0  0  0  0  0  0
    0.7124    3.1137    0.1597 O   0  0  0  0  0  0  0  0  0  0  0  0
    0.5187    0.0014    0.0692 C   0  0  0  0  0  0  0  0  0  0  0  0
    2.0865   -0.0178    0.2251 C   0  0  0  0  0  0  0  0  0  0  0  0
    2.8597    0.7851   -0.8606 C   0  0  0  0  0  0  0  0  0  0  0  0
    2.7358   -1.4274    0.1136 C   0  0  0  0  0  0  0  0  0  0  0  0
    2.4597    0.5681    1.6033 C   0  0  0  0  0  0  0  0  0  0  0  0
   -0.3286   -1.0787    0.4826 C   0  0  0  0  0  0  0  0  0  0  0  0
    0.2065   -2.2133    1.2236 N   0  0  0  0  0  0  0  0  0  0  0  0
    0.3467   -3.2727    0.5996 O   0  0  0  0  0  0  0  0  0  0  0  0
    0.4238   -2.0380    2.4280 O   0  0  0  0  0  0  0  0  0  0  0  0
   -2.3805   -3.1557    0.0106 H   0  0  0  0  0  0  0  0  0  0  0  0
   -2.2977   -2.6444    1.7231 H   0  0  0  0  0  0  0  0  0  0  0  0
   -3.6323   -2.1389    0.7300 H   0  0  0  0  0  0  0  0  0  0  0  0
   -1.9672    3.2566   -0.8751 H   0  0  0  0  0  0  0  0  0  0  0  0
   -2.0721    2.3476   -2.4125 H   0  0  0  0  0  0  0  0  0  0  0  0
   -3.3830    2.3118   -1.2297 H   0  0  0  0  0  0  0  0  0  0  0  0
    2.4862    0.5593   -1.8654 H   0  0  0  0  0  0  0  0  0  0  0  0
    2.8359    1.8637   -0.6922 H   0  0  0  0  0  0  0  0  0  0  0  0
    3.9317    0.5494   -0.8574 H   0  0  0  0  0  0  0  0  0  0  0  0
    2.6180   -2.0249    1.0199 H   0  0  0  0  0  0  0  0  0  0  0  0
    2.3439   -1.9802   -0.7473 H   0  0  0  0  0  0  0  0  0  0  0  0
    3.8244   -1.3673   -0.0134 H   0  0  0  0  0  0  0  0  0  0  0  0
    2.0232   -0.0076    2.4247 H   0  0  0  0  0  0  0  0  0  0  0  0
    3.5464    0.5713    1.7487 H   0  0  0  0  0  0  0  0  0  0  0  0
    2.1132    1.5995    1.7171 H   0  0  0  0  0  0  0  0  0  0  0  0
  1  2  1  0
  2  3  2  0
  3  4  1  0
  4  5  2  0
  4  6  1  0
  3  7  1  0
  7  8  1  0
  7  9  2  0
  9 10  1  0
 10 11  2  0
 10 12  1  0
  9 13  1  0
 13 14  1  0
 14 15  1  0
 14 16  1  0
 14 17  1  0
 13 18  2  0
 18 19  1  0
 19 20  2  0
 19 21  1  0
 18  2  1  0
  1 22  1  0
  1 23  1  0
  1 24  1  0
  8 25  1  0
  8 26  1  0
  8 27  1  0
 15 28  1  0
 15 29  1  0
 15 30  1  0
 16 31  1  0
 16 32  1  0
 16 33  1  0
 17 34  1  0
 17 35  1  0
 17 36  1  0
M  CHG  6   4   1   6  -1  10   1  12  -1  19   1  21  -1
M  END
$$$$
