
     RDKit          3D

 41 41  0  0  0  0  0  0  0  0999 V2000
   -2.9822   -3.2362    0.6754 C   0  0  0  0  0  0  0  0  0  0  0  0
   -2.0389   -2.2167    0.0544 C   0  0  0  0  0  0  0  0  0  0  0  0
   -2.2795   -0.8184    0.6240 C   0  0  0  0  0  0  0  0  0  0  0  0
   -1.4039    0.2201    0.0141 N   0  0  0  0  0  0  0  0  0  0  0  0
   -1.9169    1.5976    0.2502 C   0  0  0  0  0  0  0  0  0  0  0  0
   -1.1705    2.6753   -0.5375 C   0  0  0  0  0  0  0  0  0  0  0  0
   -1.7604    4.0540   -0.2796 C   0  0  0  0  0  0  0  0  0  0  0  0
   -0.0208    0.0243    0.1748 C   0  0  0  0  0  0  0  0  0  0  0  0
    0.7670   -0.3271   -0.9461 C   0  0  0  0  0  0  0  0  0  0  0  0
    0.1518   -0.4723   -2.2513 N   0  0  0  0  0  0  0  0  0  0  0  0
   -0.0983   -1.6271   -2.6224 O   0  0  0  0  0  0  0  0  0  0  0  0
    0.0312    0.5528   -2.9342 O   0  0  0  0  0  0  0  0  0  0  0  0
    2.1568   -0.5588   -0.9014 C   0  0  0  0  0  0  0  0  0  0  0  0
    2.8292   -0.4364    0.3110 C   0  0  0  0  0  0  0  0  0  0  0  0
    4.2981   -0.6646    0.4417 C   0  0  0  0  0  0  0  0  0  0  0  0
    5.0950   -1.0487   -0.7768 C   0  0  0  0  0  0  0  0  0  0  0  0
    4.8283   -0.5343    1.5419 O   0  0  0  0  0  0  0  0  0  0  0  0
    2.1035   -0.0842    1.4523 C   0  0  0  0  0  0  0  0  0  0  0  0
    0.7136    0.1381    1.3711 C   0  0  0  0  0  0  0  0  0  0  0  0
    0.0828    0.5036    2.6188 N   0  0  0  0  0  0  0  0  0  0  0  0
   -0.3183   -0.4211    3.3366 O   0  0  0  0  0  0  0  0  0  0  0  0
    0.0425    1.7098    2.8932 O   0  0  0  0  0  0  0  0  0  0  0  0
   -2.7987   -4.2288    0.2522 H   0  0  0  0  0  0  0  0  0  0  0  0
   -4.0272   -2.9731    0.4829 H   0  0  0  0  0  0  0  0  0  0  0  0
   -2.8360   -3.2961    1.7586 H   0  0  0  0  0  0  0  0  0  0  0  0
   -1.0081   -2.5403    0.2353 H   0  0  0  0  0  0  0  0  0  0  0  0
   -2.1933   -2.2060   -1.0300 H   0  0  0  0  0  0  0  0  0  0  0  0
   -2.1829   -0.8238    1.7133 H   0  0  0  0  0  0  0  0  0  0  0  0
   -3.3242   -0.5526    0.4153 H   0  0  0  0  0  0  0  0  0  0  0  0
   -1.9246    1.8315    1.3190 H   0  0  0  0  0  0  0  0  0  0  0  0
   -2.9669    1.6232   -0.0698 H   0  0  0  0  0  0  0  0  0  0  0  0
   -0.1090    2.6956   -0.2681 H   0  0  0  0  0  0  0  0  0  0  0  0
   -1.2300    2.4609   -1.6096 H   0  0  0  0  0  0  0  0  0  0  0  0
   -2.8137    4.0924   -0.5749 H   0  0  0  0  0  0  0  0  0  0  0  0
   -1.2188    4.8114   -0.8550 H   0  0  0  0  0  0  0  0  0  0  0  0
   -1.6899    4.3179    0.7805 H   0  0  0  0  0  0  0  0  0  0  0  0
    2.6779   -0.8287   -1.8172 H   0  0  0  0  0  0  0  0  0  0  0  0
    4.7336   -1.9973   -1.1822 H   0  0  0  0  0  0  0  0  0  0  0  0
    5.0422   -0.2571   -1.5286 H   0  0  0  0  0  0  0  0  0  0  0  0
    6.1442   -1.1786   -0.4934 H   0  0  0  0  0  0  0  0  0  0  0  0
    2.6152    0.0196    2.4107 H   0  0  0  0  0  0  0  0  0  0  0  0
  1  2  1  0
  2  3  1  0
  3  4  1  0
  4  5  1  0
  5  6  1  0
  6  7  1  0
  4  8  1  0
  8  9  2  0
  9 10  1  0
 10 11  2  0
 10 12  1  0
  9 13  1  0
 13 14  2  0
 14 15  1  0
 15 16  1  0
 15 17  2  0
 14 18  1  0
 18 19  2  0
 19 20  1  0
 20 21  2  0
 20 22  1  0
 19  8  1  0
  1 23  1  0
  1 24  1  0
  1 25  1  0
  2 26  1  0
  2 27  1  0
  3 28  1  0
  3 29  1  0
  5 30  1  0
  5 31  1  0
  6 32  1  0
  6 33  1  0
  7 34  1  0
  7 35  1  0
  7 36  1  0
 13 37  1  0
 16 38  1  0
 16 39  1  0
 16 40  1  0
 18 41  1  0
M  CHG  4  10   1  12  -1  20   1  22  -1
M  END
$$$$
