
     RDKit          3D

 18 18  0  0  0  0  0  0  0  0999 V2000
   -1.6205    1.6484    0.0569 C   0  0  0  0  0  0  0  0  0  0  0  0
   -0.4922    0.6572    0.0087 C   0  0  0  0  0  0  0  0  0  0  0  0
    0.8267    1.1319   -0.0738 C   0  0  0  0  0  0  0  0  0  0  0  0
    1.9014    0.2443   -0.1260 C   0  0  0  0  0  0  0  0  0  0  0  0
    3.1531    0.7772   -0.2125 O   0  0  0  0  0  0  0  0  0  0  0  0
    1.7023   -1.1319   -0.0931 C   0  0  0  0  0  0  0  0  0  0  0  0
    0.4029   -1.6294    0.0018 C   0  0  0  0  0  0  0  0  0  0  0  0
   -0.6810   -0.7370    0.0614 C   0  0  0  0  0  0  0  0  0  0  0  0
   -2.0165   -1.3160    0.1776 N   0  0  0  0  0  0  0  0  0  0  0  0
   -2.2936   -2.2507   -0.5872 O   0  0  0  0  0  0  0  0  0  0  0  0
   -2.7711   -0.8539    1.0437 O   0  0  0  0  0  0  0  0  0  0  0  0
   -2.4319    1.3504   -0.6148 H   0  0  0  0  0  0  0  0  0  0  0  0
   -1.2901    2.6403   -0.2704 H   0  0  0  0  0  0  0  0  0  0  0  0
   -2.0013    1.7413    1.0786 H   0  0  0  0  0  0  0  0  0  0  0  0
    1.0291    2.2011   -0.1031 H   0  0  0  0  0  0  0  0  0  0  0  0
    3.8039    0.0564   -0.2435 H   0  0  0  0  0  0  0  0  0  0  0  0
    2.5376   -1.8242   -0.1370 H   0  0  0  0  0  0  0  0  0  0  0  0
    0.2412   -2.7053    0.0328 H   0  0  0  0  0  0  0  0  0  0  0  0
  1  2  1  0
  2  3  1  0
  3  4  2  0
  4  5  1  0
  4  6  1  0
  6  7  2  0
  7  8  1  0
  8  9  1  0
  9 10  2  0
  9 11  1  0
  8  2  2  0
  1 12  1  0
  1 13  1  0
  1 14  1  0
  3 15  1  0
  5 16  1  0
  6 17  1  0
  7 18  1  0
M  CHG  2   9   1  11  -1
M  END
$$$$
