
     RDKit          3D

 20 20  0  0  0  0  0  0  0  0999 V2000
   -3.1304   -0.4721   -0.0460 C   0  0  0  0  0  0  0  0  0  0  0  0
   -2.1339    0.5062   -0.3139 O   0  0  0  0  0  0  0  0  0  0  0  0
   -0.8235    0.1220   -0.1556 C   0  0  0  0  0  0  0  0  0  0  0  0
   -0.3941   -1.1937    0.0465 C   0  0  0  0  0  0  0  0  0  0  0  0
    0.9674   -1.4729    0.1967 C   0  0  0  0  0  0  0  0  0  0  0  0
    1.8974   -0.4273    0.1529 C   0  0  0  0  0  0  0  0  0  0  0  0
    3.3245   -0.7162    0.3343 N   0  0  0  0  0  0  0  0  0  0  0  0
    3.6460   -1.8831    0.6013 O   0  0  0  0  0  0  0  0  0  0  0  0
    4.1254    0.2206    0.2051 O   0  0  0  0  0  0  0  0  0  0  0  0
    1.4795    0.8923   -0.0539 C   0  0  0  0  0  0  0  0  0  0  0  0
    0.1230    1.1671   -0.2498 C   0  0  0  0  0  0  0  0  0  0  0  0
   -0.3043    2.5066   -0.3281 N   0  0  0  0  0  0  0  0  0  0  0  0
   -3.0336   -0.8721    0.9689 H   0  0  0  0  0  0  0  0  0  0  0  0
   -3.1031   -1.2728   -0.7921 H   0  0  0  0  0  0  0  0  0  0  0  0
   -4.1066    0.0168   -0.1192 H   0  0  0  0  0  0  0  0  0  0  0  0
   -1.0929   -2.0228    0.0929 H   0  0  0  0  0  0  0  0  0  0  0  0
    1.2820   -2.5025    0.3558 H   0  0  0  0  0  0  0  0  0  0  0  0
    2.1958    1.7104   -0.0560 H   0  0  0  0  0  0  0  0  0  0  0  0
   -1.2577    2.5653   -0.6852 H   0  0  0  0  0  0  0  0  0  0  0  0
    0.3391    3.1282   -0.8057 H   0  0  0  0  0  0  0  0  0  0  0  0
  1  2  1  0
  2  3  1  0
  3  4  1  0
  4  5  2  0
  5  6  1  0
  6  7  1  0
  7  8  2  0
  7  9  1  0
  6 10  2  0
 10 11  1  0
 11 12  1  0
 11  3  2  0
  1 13  1  0
  1 14  1  0
  1 15  1  0
  4 16  1  0
  5 17  1  0
 10 18  1  0
 12 19  1  0
 12 20  1  0
M  CHG  2   7   1   9  -1
M  END
$$$$
