
     RDKit          3D

 18 18  0  0  0  0  0  0  0  0999 V2000
    0.0382   -1.9784    0.7822 N   0  0  0  0  0  0  0  0  0  0  0  0
    0.0204   -0.6966    0.1923 C   0  0  0  0  0  0  0  0  0  0  0  0
   -1.1937   -0.0302   -0.0976 C   0  0  0  0  0  0  0  0  0  0  0  0
   -2.4754   -0.7284    0.0194 N   0  0  0  0  0  0  0  0  0  0  0  0
   -2.5004   -1.9358   -0.2625 O   0  0  0  0  0  0  0  0  0  0  0  0
   -3.4575   -0.0601    0.3702 O   0  0  0  0  0  0  0  0  0  0  0  0
   -1.2357    1.3088   -0.5273 C   0  0  0  0  0  0  0  0  0  0  0  0
   -0.0525    2.0271   -0.6422 C   0  0  0  0  0  0  0  0  0  0  0  0
   -0.0941    3.6624   -1.1687 Cl  0  0  0  0  0  0  0  0  0  0  0  0
    1.1634    1.4344   -0.3267 C   0  0  0  0  0  0  0  0  0  0  0  0
    1.1900    0.0946    0.1017 C   0  0  0  0  0  0  0  0  0  0  0  0
    2.5000   -0.4678    0.4354 N   0  0  0  0  0  0  0  0  0  0  0  0
    2.6965   -1.6637    0.1720 O   0  0  0  0  0  0  0  0  0  0  0  0
    3.3358    0.2956    0.9381 O   0  0  0  0  0  0  0  0  0  0  0  0
   -0.7533   -2.5763    0.5214 H   0  0  0  0  0  0  0  0  0  0  0  0
    0.9197   -2.4888    0.6612 H   0  0  0  0  0  0  0  0  0  0  0  0
   -2.1842    1.7899   -0.7627 H   0  0  0  0  0  0  0  0  0  0  0  0
    2.0827    2.0133   -0.4060 H   0  0  0  0  0  0  0  0  0  0  0  0
  1  2  1  0
  2  3  2  0
  3  4  1  0
  4  5  2  0
  4  6  1  0
  3  7  1  0
  7  8  2  0
  8  9  1  0
  8 10  1  0
 10 11  2  0
 11 12  1  0
 12 13  2  0
 12 14  1  0
 11  2  1  0
  1 15  1  0
  1 16  1  0
  7 17  1  0
 10 18  1  0
M  CHG  4   4   1   6  -1  12   1  14  -1
M  END
$$$$
