
     RDKit          3D

 69 70  0  0  0  0  0  0  0  0999 V2000
   -9.2469    0.2513   -0.7209 C   0  0  0  0  0  0  0  0  0  0  0  0
   -8.0411    1.1383   -0.9766 C   0  0  0  0  0  0  0  0  0  0  0  0
   -7.2799    1.4398    0.3103 C   0  0  0  0  0  0  0  0  0  0  0  0
   -6.1882    2.3219    0.0452 O   0  0  0  0  0  0  0  0  0  0  0  0
   -4.9815    1.6490   -0.3123 C   0  0  0  0  0  0  0  0  0  0  0  0
   -4.1956    1.2261    0.9286 C   0  0  0  0  0  0  0  0  0  0  0  0
   -2.9481    0.6117    0.5729 O   0  0  0  0  0  0  0  0  0  0  0  0
   -3.0177   -0.6899    0.2002 C   0  0  0  0  0  0  0  0  0  0  0  0
   -4.0490   -1.3416    0.1465 O   0  0  0  0  0  0  0  0  0  0  0  0
   -1.6602   -1.2235   -0.0982 C   0  0  0  0  0  0  0  0  0  0  0  0
   -1.4935   -2.3399   -0.8483 C   0  0  0  0  0  0  0  0  0  0  0  0
   -2.5943   -3.0368   -1.6098 C   0  0  0  0  0  0  0  0  0  0  0  0
   -0.2357   -2.9230   -0.9495 N   0  0  0  0  0  0  0  0  0  0  0  0
    0.8471   -2.5743   -0.1535 C   0  0  0  0  0  0  0  0  0  0  0  0
    1.9997   -3.5453   -0.1555 C   0  0  0  0  0  0  0  0  0  0  0  0
    0.7839   -1.4487    0.5927 C   0  0  0  0  0  0  0  0  0  0  0  0
    1.8572   -0.9743    1.4940 C   0  0  0  0  0  0  0  0  0  0  0  0
    1.6396   -0.5197    2.6068 O   0  0  0  0  0  0  0  0  0  0  0  0
    3.0629   -1.0331    0.8767 O   0  0  0  0  0  0  0  0  0  0  0  0
    4.1449   -0.5071    1.6554 C   0  0  0  0  0  0  0  0  0  0  0  0
    5.4547   -0.7826    0.9254 C   0  0  0  0  0  0  0  0  0  0  0  0
    6.5361   -0.2497    1.6856 O   0  0  0  0  0  0  0  0  0  0  0  0
    7.8215   -0.6525    1.2134 C   0  0  0  0  0  0  0  0  0  0  0  0
    8.2177    0.0832   -0.0637 C   0  0  0  0  0  0  0  0  0  0  0  0
    9.6416   -0.2469   -0.4799 C   0  0  0  0  0  0  0  0  0  0  0  0
   -0.4589   -0.5621    0.5830 C   0  0  0  0  0  0  0  0  0  0  0  0
   -0.1151    0.7998   -0.0406 C   0  0  0  0  0  0  0  0  0  0  0  0
    0.1878    0.9235   -1.4092 C   0  0  0  0  0  0  0  0  0  0  0  0
    0.5073    2.1652   -1.9637 C   0  0  0  0  0  0  0  0  0  0  0  0
    0.5301    3.3058   -1.1617 C   0  0  0  0  0  0  0  0  0  0  0  0
    0.2364    3.1943    0.2028 C   0  0  0  0  0  0  0  0  0  0  0  0
    0.2499    4.3949    1.0489 N   0  0  0  0  0  0  0  0  0  0  0  0
   -0.1735    4.2893    2.2084 O   0  0  0  0  0  0  0  0  0  0  0  0
    0.6790    5.4462    0.5508 O   0  0  0  0  0  0  0  0  0  0  0  0
   -0.0773    1.9503    0.7676 C   0  0  0  0  0  0  0  0  0  0  0  0
   -9.7753    0.0500   -1.6577 H   0  0  0  0  0  0  0  0  0  0  0  0
   -9.9484    0.7342   -0.0332 H   0  0  0  0  0  0  0  0  0  0  0  0
   -8.9451   -0.7071   -0.2855 H   0  0  0  0  0  0  0  0  0  0  0  0
   -7.3803    0.6570   -1.7055 H   0  0  0  0  0  0  0  0  0  0  0  0
   -8.3638    2.0786   -1.4379 H   0  0  0  0  0  0  0  0  0  0  0  0
   -6.9396    0.5202    0.7993 H   0  0  0  0  0  0  0  0  0  0  0  0
   -7.9412    1.9573    1.0130 H   0  0  0  0  0  0  0  0  0  0  0  0
   -4.3717    2.3526   -0.8904 H   0  0  0  0  0  0  0  0  0  0  0  0
   -5.1810    0.8044   -0.9801 H   0  0  0  0  0  0  0  0  0  0  0  0
   -3.9620    2.1117    1.5302 H   0  0  0  0  0  0  0  0  0  0  0  0
   -4.7776    0.5694    1.5854 H   0  0  0  0  0  0  0  0  0  0  0  0
   -3.3557   -2.3398   -1.9736 H   0  0  0  0  0  0  0  0  0  0  0  0
   -2.1917   -3.5326   -2.5008 H   0  0  0  0  0  0  0  0  0  0  0  0
   -3.0675   -3.8000   -0.9836 H   0  0  0  0  0  0  0  0  0  0  0  0
   -0.1949   -3.8352   -1.4005 H   0  0  0  0  0  0  0  0  0  0  0  0
    2.6240   -3.3880   -1.0404 H   0  0  0  0  0  0  0  0  0  0  0  0
    2.6255   -3.4680    0.7380 H   0  0  0  0  0  0  0  0  0  0  0  0
    1.6293   -4.5762   -0.1770 H   0  0  0  0  0  0  0  0  0  0  0  0
    4.1709   -0.9778    2.6466 H   0  0  0  0  0  0  0  0  0  0  0  0
    4.0119    0.5734    1.7898 H   0  0  0  0  0  0  0  0  0  0  0  0
    5.4253   -0.3211   -0.0678 H   0  0  0  0  0  0  0  0  0  0  0  0
    5.5759   -1.8640    0.7880 H   0  0  0  0  0  0  0  0  0  0  0  0
    8.5352   -0.4095    2.0088 H   0  0  0  0  0  0  0  0  0  0  0  0
    7.8504   -1.7408    1.0755 H   0  0  0  0  0  0  0  0  0  0  0  0
    8.1145    1.1651    0.0866 H   0  0  0  0  0  0  0  0  0  0  0  0
    7.5359   -0.1780   -0.8799 H   0  0  0  0  0  0  0  0  0  0  0  0
    9.9048    0.2949   -1.3939 H   0  0  0  0  0  0  0  0  0  0  0  0
   10.3539    0.0374    0.3001 H   0  0  0  0  0  0  0  0  0  0  0  0
    9.7550   -1.3179   -0.6757 H   0  0  0  0  0  0  0  0  0  0  0  0
   -0.7514   -0.4123    1.6329 H   0  0  0  0  0  0  0  0  0  0  0  0
    0.1798    0.0457   -2.0552 H   0  0  0  0  0  0  0  0  0  0  0  0
    0.7371    2.2423   -3.0241 H   0  0  0  0  0  0  0  0  0  0  0  0
    0.7744    4.2663   -1.6102 H   0  0  0  0  0  0  0  0  0  0  0  0
   -0.2975    1.8681    1.8318 H   0  0  0  0  0  0  0  0  0  0  0  0
  1  2  1  0
  2  3  1  0
  3  4  1  0
  4  5  1  0
  5  6  1  0
  6  7  1  0
  7  8  1  0
  8  9  2  0
  8 10  1  0
 10 11  2  0
 11 12  1  0
 11 13  1  0
 13 14  1  0
 14 15  1  0
 14 16  2  0
 16 17  1  0
 17 18  2  0
 17 19  1  0
 19 20  1  0
 20 21  1  0
 21 22  1  0
 22 23  1  0
 23 24  1  0
 24 25  1  0
 16 26  1  0
 26 27  1  0
 27 28  2  0
 28 29  1  0
 29 30  2  0
 30 31  1  0
 31 32  1  0
 32 33  2  0
 32 34  1  0
 31 35  2  0
 26 10  1  0
 35 27  1  0
  1 36  1  0
  1 37  1  0
  1 38  1  0
  2 39  1  0
  2 40  1  0
  3 41  1  0
  3 42  1  0
  5 43  1  0
  5 44  1  0
  6 45  1  0
  6 46  1  0
 12 47  1  0
 12 48  1  0
 12 49  1  0
 13 50  1  0
 15 51  1  0
 15 52  1  0
 15 53  1  0
 20 54  1  0
 20 55  1  0
 21 56  1  0
 21 57  1  0
 23 58  1  0
 23 59  1  0
 24 60  1  0
 24 61  1  0
 25 62  1  0
 25 63  1  0
 25 64  1  0
 26 65  1  0
 28 66  1  0
 29 67  1  0
 30 68  1  0
 35 69  1  0
M  CHG  2  32   1  34  -1
M  END
$$$$
