
     RDKit          3D

 29 31  0  0  0  0  0  0  0  0999 V2000
    1.3674   -2.8283    0.2129 O   0  0  0  0  0  0  0  0  0  0  0  0
    1.1468   -1.6326    0.0649 C   0  0  0  0  0  0  0  0  0  0  0  0
    2.2523   -0.6949   -0.1909 C   0  0  0  0  0  0  0  0  0  0  0  0
    3.5587   -1.1786   -0.3359 C   0  0  0  0  0  0  0  0  0  0  0  0
    4.6084   -0.2900   -0.5728 C   0  0  0  0  0  0  0  0  0  0  0  0
    4.3568    1.0786   -0.6618 C   0  0  0  0  0  0  0  0  0  0  0  0
    3.0550    1.5607   -0.5141 C   0  0  0  0  0  0  0  0  0  0  0  0
    1.9991    0.6700   -0.2807 C   0  0  0  0  0  0  0  0  0  0  0  0
    0.6273    1.1877   -0.1120 C   0  0  0  0  0  0  0  0  0  0  0  0
    0.4514    2.3941   -0.0272 O   0  0  0  0  0  0  0  0  0  0  0  0
   -0.5116    0.2467   -0.0053 C   0  0  0  0  0  0  0  0  0  0  0  0
   -0.2389   -1.1190    0.1261 C   0  0  0  0  0  0  0  0  0  0  0  0
   -1.2819   -2.0395    0.3128 C   0  0  0  0  0  0  0  0  0  0  0  0
   -2.6068   -1.6055    0.3589 C   0  0  0  0  0  0  0  0  0  0  0  0
   -2.9062   -0.2463    0.2015 C   0  0  0  0  0  0  0  0  0  0  0  0
   -4.3221    0.1806    0.1950 C   0  0  0  0  0  0  0  0  0  0  0  0
   -4.8014    1.0744   -0.4693 O   0  0  0  0  0  0  0  0  0  0  0  0
   -5.0605   -0.5516    1.0448 O   0  0  0  0  0  0  0  0  0  0  0  0
   -1.8555    0.6645    0.0128 C   0  0  0  0  0  0  0  0  0  0  0  0
   -2.1856    2.0602   -0.1649 N   0  0  0  0  0  0  0  0  0  0  0  0
   -2.5029    2.6853    0.8557 O   0  0  0  0  0  0  0  0  0  0  0  0
   -2.1544    2.4916   -1.3247 O   0  0  0  0  0  0  0  0  0  0  0  0
    3.7636   -2.2456   -0.2641 H   0  0  0  0  0  0  0  0  0  0  0  0
    5.6234   -0.6653   -0.6856 H   0  0  0  0  0  0  0  0  0  0  0  0
    5.1749    1.7725   -0.8437 H   0  0  0  0  0  0  0  0  0  0  0  0
    2.8692    2.6319   -0.5809 H   0  0  0  0  0  0  0  0  0  0  0  0
   -1.0657   -3.1030    0.4218 H   0  0  0  0  0  0  0  0  0  0  0  0
   -3.4013   -2.3377    0.4999 H   0  0  0  0  0  0  0  0  0  0  0  0
   -5.9598   -0.1609    0.9852 H   0  0  0  0  0  0  0  0  0  0  0  0
  1  2  2  0
  2  3  1  0
  3  4  2  0
  4  5  1  0
  5  6  2  0
  6  7  1  0
  7  8  2  0
  8  9  1  0
  9 10  2  0
  9 11  1  0
 11 12  2  0
 12 13  1  0
 13 14  2  0
 14 15  1  0
 15 16  1  0
 16 17  2  0
 16 18  1  0
 15 19  2  0
 19 20  1  0
 20 21  2  0
 20 22  1  0
 12  2  1  0
  8  3  1  0
 19 11  1  0
  4 23  1  0
  5 24  1  0
  6 25  1  0
  7 26  1  0
 13 27  1  0
 14 28  1  0
 18 29  1  0
M  CHG  2  20   1  22  -1
M  END
$$$$
