
     RDKit          3D

 22 23  0  0  0  0  0  0  0  0999 V2000
    5.7274    0.1034    0.3424 N   0  0  0  0  0  0  0  0  0  0  0  0
    4.3945    0.0143    0.5159 C   0  0  0  0  0  0  0  0  0  0  0  0
    3.8091   -0.2459    1.6607 N   0  0  0  0  0  0  0  0  0  0  0  0
    2.4335   -0.2690    1.5574 N   0  0  0  0  0  0  0  0  0  0  0  0
    2.0058   -0.0269    0.3314 C   0  0  0  0  0  0  0  0  0  0  0  0
    0.6586    0.0191   -0.1239 C   0  0  0  0  0  0  0  0  0  0  0  0
   -0.3561   -0.2084    0.7252 C   0  0  0  0  0  0  0  0  0  0  0  0
   -1.7057   -0.1648    0.2804 C   0  0  0  0  0  0  0  0  0  0  0  0
   -2.8685   -0.3821    1.0180 C   0  0  0  0  0  0  0  0  0  0  0  0
   -3.9804   -0.2324    0.1513 C   0  0  0  0  0  0  0  0  0  0  0  0
   -3.4375    0.0689   -1.0702 C   0  0  0  0  0  0  0  0  0  0  0  0
   -4.0357    0.3328   -2.3398 N   0  0  0  0  0  0  0  0  0  0  0  0
   -5.2729    0.2884   -2.3817 O   0  0  0  0  0  0  0  0  0  0  0  0
   -3.2867    0.5839   -3.2926 O   0  0  0  0  0  0  0  0  0  0  0  0
   -2.0833    0.1148   -1.0183 O   0  0  0  0  0  0  0  0  0  0  0  0
    3.3001    0.2614   -0.7807 S   0  0  0  0  0  0  0  0  0  0  0  0
    6.0612    0.6598   -0.4355 H   0  0  0  0  0  0  0  0  0  0  0  0
    6.2662    0.2293    1.1931 H   0  0  0  0  0  0  0  0  0  0  0  0
    0.4702    0.2406   -1.1710 H   0  0  0  0  0  0  0  0  0  0  0  0
   -0.1686   -0.4321    1.7734 H   0  0  0  0  0  0  0  0  0  0  0  0
   -2.9000   -0.6237    2.0731 H   0  0  0  0  0  0  0  0  0  0  0  0
   -5.0311   -0.3311    0.3873 H   0  0  0  0  0  0  0  0  0  0  0  0
  1  2  1  0
  2  3  2  0
  3  4  1  0
  4  5  2  0
  5  6  1  0
  6  7  2  0
  7  8  1  0
  8  9  2  0
  9 10  1  0
 10 11  2  0
 11 12  1  0
 12 13  2  0
 12 14  1  0
 11 15  1  0
  5 16  1  0
 16  2  1  0
 15  8  1  0
  1 17  1  0
  1 18  1  0
  6 19  1  0
  7 20  1  0
  9 21  1  0
 10 22  1  0
M  CHG  2  12   1  14  -1
M  END
$$$$
