
     RDKit          3D

 27 28  0  0  0  0  0  0  0  0999 V2000
    5.5880    1.0462    0.9327 O   0  0  0  0  0  0  0  0  0  0  0  0
    4.7240    1.4391    0.1361 N   0  0  0  0  0  0  0  0  0  0  0  0
    4.7600    2.5230   -0.4633 O   0  0  0  0  0  0  0  0  0  0  0  0
    3.5749    0.5593   -0.1132 C   0  0  0  0  0  0  0  0  0  0  0  0
    2.5677    0.9649   -0.9981 C   0  0  0  0  0  0  0  0  0  0  0  0
    1.4759    0.1230   -1.2319 C   0  0  0  0  0  0  0  0  0  0  0  0
    1.3813   -1.1148   -0.5828 C   0  0  0  0  0  0  0  0  0  0  0  0
    0.0040   -2.2093   -0.8780 S   0  0  0  0  0  0  0  0  0  0  0  0
   -1.3771   -1.1968   -0.3786 C   0  0  0  0  0  0  0  0  0  0  0  0
   -1.4749   -0.6964    0.9261 C   0  0  0  0  0  0  0  0  0  0  0  0
   -2.5697    0.0868    1.3052 C   0  0  0  0  0  0  0  0  0  0  0  0
   -3.5765    0.3635    0.3715 C   0  0  0  0  0  0  0  0  0  0  0  0
   -4.7287    1.1852    0.7639 N   0  0  0  0  0  0  0  0  0  0  0  0
   -4.7679    1.6026    1.9299 O   0  0  0  0  0  0  0  0  0  0  0  0
   -5.5921    1.4140   -0.0950 O   0  0  0  0  0  0  0  0  0  0  0  0
   -3.4939   -0.1404   -0.9328 C   0  0  0  0  0  0  0  0  0  0  0  0
   -2.3945   -0.9223   -1.3009 C   0  0  0  0  0  0  0  0  0  0  0  0
    2.3989   -1.5145    0.2922 C   0  0  0  0  0  0  0  0  0  0  0  0
    3.4955   -0.6807    0.5334 C   0  0  0  0  0  0  0  0  0  0  0  0
    2.6179    1.9226   -1.5127 H   0  0  0  0  0  0  0  0  0  0  0  0
    0.7027    0.4415   -1.9284 H   0  0  0  0  0  0  0  0  0  0  0  0
   -0.7019   -0.9147    1.6604 H   0  0  0  0  0  0  0  0  0  0  0  0
   -2.6224    0.4660    2.3240 H   0  0  0  0  0  0  0  0  0  0  0  0
   -4.2708    0.0607   -1.6680 H   0  0  0  0  0  0  0  0  0  0  0  0
   -2.3395   -1.3161   -2.3144 H   0  0  0  0  0  0  0  0  0  0  0  0
    2.3466   -2.4796    0.7931 H   0  0  0  0  0  0  0  0  0  0  0  0
    4.2727   -1.0128    1.2191 H   0  0  0  0  0  0  0  0  0  0  0  0
  1  2  2  0
  2  3  1  0
  2  4  1  0
  4  5  1  0
  5  6  2  0
  6  7  1  0
  7  8  1  0
  8  9  1  0
  9 10  1  0
 10 11  2  0
 11 12  1  0
 12 13  1  0
 13 14  2  0
 13 15  1  0
 12 16  2  0
 16 17  1  0
  7 18  2  0
 18 19  1  0
 19  4  2  0
 17  9  2  0
  5 20  1  0
  6 21  1  0
 10 22  1  0
 11 23  1  0
 16 24  1  0
 17 25  1  0
 18 26  1  0
 19 27  1  0
M  CHG  4   2   1   3  -1  13   1  15  -1
M  END
$$$$
