
     RDKit          3D

 32 32  0  0  0  0  0  0  0  0999 V2000
   -2.9465   -1.9655   -1.0379 O   0  0  0  0  0  0  0  0  0  0  0  0
   -2.9652   -0.7551   -0.8084 C   0  0  0  0  0  0  0  0  0  0  0  0
   -2.0493   -0.1657    0.0390 N   0  0  0  0  0  0  0  0  0  0  0  0
   -1.0297   -0.9270    0.7707 C   0  0  0  0  0  0  0  0  0  0  0  0
   -1.6580   -1.6197    1.9954 C   0  0  0  0  0  0  0  0  0  0  0  0
   -0.7988   -2.6468    2.4883 O   0  0  0  0  0  0  0  0  0  0  0  0
    0.1383   -0.0014    1.2197 C   0  0  0  0  0  0  0  0  0  0  0  0
   -0.4124    1.2462    1.6780 O   0  0  0  0  0  0  0  0  0  0  0  0
    1.2047    0.3084    0.1771 C   0  0  0  0  0  0  0  0  0  0  0  0
    0.9166    0.4310   -1.1911 C   0  0  0  0  0  0  0  0  0  0  0  0
    1.9191    0.7492   -2.1133 C   0  0  0  0  0  0  0  0  0  0  0  0
    3.2245    0.9673   -1.6659 C   0  0  0  0  0  0  0  0  0  0  0  0
    4.2753    1.3168   -2.6274 N   0  0  0  0  0  0  0  0  0  0  0  0
    4.0490    1.1033   -3.8278 O   0  0  0  0  0  0  0  0  0  0  0  0
    5.3222    1.8085   -2.1834 O   0  0  0  0  0  0  0  0  0  0  0  0
    3.5384    0.8564   -0.3067 C   0  0  0  0  0  0  0  0  0  0  0  0
    2.5295    0.5289    0.6049 C   0  0  0  0  0  0  0  0  0  0  0  0
   -4.0042    0.1731   -1.4358 C   0  0  0  0  0  0  0  0  0  0  0  0
   -5.1147    0.7386   -0.1732 Cl  0  0  0  0  0  0  0  0  0  0  0  0
   -3.1853    1.5438   -2.2181 Cl  0  0  0  0  0  0  0  0  0  0  0  0
   -2.1866    0.7970    0.3415 H   0  0  0  0  0  0  0  0  0  0  0  0
   -0.6397   -1.7111    0.1089 H   0  0  0  0  0  0  0  0  0  0  0  0
   -2.6204   -2.0808    1.7487 H   0  0  0  0  0  0  0  0  0  0  0  0
   -1.8417   -0.9043    2.8028 H   0  0  0  0  0  0  0  0  0  0  0  0
   -0.9593   -3.4333    1.9326 H   0  0  0  0  0  0  0  0  0  0  0  0
    0.6430   -0.4668    2.0771 H   0  0  0  0  0  0  0  0  0  0  0  0
    0.3162    1.8910    1.6850 H   0  0  0  0  0  0  0  0  0  0  0  0
   -0.0942    0.2887   -1.5693 H   0  0  0  0  0  0  0  0  0  0  0  0
    1.6624    0.8338   -3.1671 H   0  0  0  0  0  0  0  0  0  0  0  0
    4.5552    1.0193    0.0561 H   0  0  0  0  0  0  0  0  0  0  0  0
    2.7871    0.4426    1.6612 H   0  0  0  0  0  0  0  0  0  0  0  0
   -4.5754   -0.3665   -2.1968 H   0  0  0  0  0  0  0  0  0  0  0  0
  1  2  2  0
  2  3  1  0
  3  4  1  0
  4  5  1  0
  5  6  1  0
  4  7  1  0
  7  8  1  0
  7  9  1  0
  9 10  1  0
 10 11  2  0
 11 12  1  0
 12 13  1  0
 13 14  2  0
 13 15  1  0
 12 16  2  0
 16 17  1  0
  2 18  1  0
 18 19  1  0
 18 20  1  0
 17  9  2  0
  3 21  1  0
  4 22  1  0
  5 23  1  0
  5 24  1  0
  6 25  1  0
  7 26  1  0
  8 27  1  0
 10 28  1  0
 11 29  1  0
 16 30  1  0
 17 31  1  0
 18 32  1  0
M  CHG  2  13   1  15  -1
M  END
$$$$
