
     RDKit          3D

 31 31  0  0  0  0  0  0  0  0999 V2000
   -3.8672   -1.2529    0.7443 C   0  0  0  0  0  0  0  0  0  0  0  0
   -2.4329   -1.2878    0.2590 C   0  0  0  0  0  0  0  0  0  0  0  0
   -1.9276    0.0402    0.2145 O   0  0  0  0  0  0  0  0  0  0  0  0
   -1.3624    0.6259   -1.1883 P   0  0  0  0  0  0  0  0  0  0  0  0
   -2.6491    0.6756   -2.6448 S   0  0  0  0  0  0  0  0  0  0  0  0
   -0.6654    2.2236   -0.7055 C   0  0  0  0  0  0  0  0  0  0  0  0
   -1.6940    3.2288   -0.2183 C   0  0  0  0  0  0  0  0  0  0  0  0
   -0.0711   -0.2949   -1.4898 O   0  0  0  0  0  0  0  0  0  0  0  0
    1.0540   -0.5031   -0.7420 C   0  0  0  0  0  0  0  0  0  0  0  0
    1.0914   -0.3858    0.6477 C   0  0  0  0  0  0  0  0  0  0  0  0
    2.2778   -0.6390    1.3461 C   0  0  0  0  0  0  0  0  0  0  0  0
    3.4309   -1.0189    0.6473 C   0  0  0  0  0  0  0  0  0  0  0  0
    4.6739   -1.2844    1.3822 N   0  0  0  0  0  0  0  0  0  0  0  0
    5.6690   -1.6200    0.7263 O   0  0  0  0  0  0  0  0  0  0  0  0
    4.6510   -1.1545    2.6138 O   0  0  0  0  0  0  0  0  0  0  0  0
    3.4061   -1.1493   -0.7440 C   0  0  0  0  0  0  0  0  0  0  0  0
    2.2162   -0.8939   -1.4291 C   0  0  0  0  0  0  0  0  0  0  0  0
    2.2203   -1.0587   -3.1496 Cl  0  0  0  0  0  0  0  0  0  0  0  0
   -4.2790   -2.2634    0.8166 H   0  0  0  0  0  0  0  0  0  0  0  0
   -4.4929   -0.6650    0.0652 H   0  0  0  0  0  0  0  0  0  0  0  0
   -3.9298   -0.7750    1.7276 H   0  0  0  0  0  0  0  0  0  0  0  0
   -1.8160   -1.8594    0.9592 H   0  0  0  0  0  0  0  0  0  0  0  0
   -2.3671   -1.7753   -0.7185 H   0  0  0  0  0  0  0  0  0  0  0  0
    0.0725    2.0864    0.0891 H   0  0  0  0  0  0  0  0  0  0  0  0
   -0.1311    2.6409   -1.5663 H   0  0  0  0  0  0  0  0  0  0  0  0
   -2.4159    3.4660   -1.0048 H   0  0  0  0  0  0  0  0  0  0  0  0
   -1.2057    4.1587    0.0881 H   0  0  0  0  0  0  0  0  0  0  0  0
   -2.2485    2.8306    0.6368 H   0  0  0  0  0  0  0  0  0  0  0  0
    0.2153   -0.1086    1.2255 H   0  0  0  0  0  0  0  0  0  0  0  0
    2.2828   -0.5408    2.4311 H   0  0  0  0  0  0  0  0  0  0  0  0
    4.2944   -1.4464   -1.2980 H   0  0  0  0  0  0  0  0  0  0  0  0
  1  2  1  0
  2  3  1  0
  3  4  1  0
  4  5  2  0
  4  6  1  0
  6  7  1  0
  4  8  1  0
  8  9  1  0
  9 10  1  0
 10 11  2  0
 11 12  1  0
 12 13  1  0
 13 14  2  0
 13 15  1  0
 12 16  2  0
 16 17  1  0
 17 18  1  0
 17  9  2  0
  1 19  1  0
  1 20  1  0
  1 21  1  0
  2 22  1  0
  2 23  1  0
  6 24  1  0
  6 25  1  0
  7 26  1  0
  7 27  1  0
  7 28  1  0
 10 29  1  0
 11 30  1  0
 16 31  1  0
M  CHG  2  13   1  15  -1
M  END
$$$$
