
     RDKit          3D

 28 28  0  0  0  0  0  0  0  0999 V2000
   -3.0050    2.3953    0.3571 C   0  0  0  0  0  0  0  0  0  0  0  0
   -3.0290    0.9023    0.0864 C   0  0  0  0  0  0  0  0  0  0  0  0
   -1.6060    0.0025    0.7530 P   0  0  0  0  0  0  0  0  0  0  0  0
   -1.4131   -0.0274    2.6873 S   0  0  0  0  0  0  0  0  0  0  0  0
   -1.7419   -1.4391    0.0180 O   0  0  0  0  0  0  0  0  0  0  0  0
   -2.7290   -2.3529    0.4573 C   0  0  0  0  0  0  0  0  0  0  0  0
   -0.4045    0.6830   -0.0855 O   0  0  0  0  0  0  0  0  0  0  0  0
    0.9106    0.3060   -0.1021 C   0  0  0  0  0  0  0  0  0  0  0  0
    1.3626   -0.9173    0.3961 C   0  0  0  0  0  0  0  0  0  0  0  0
    2.7228   -1.2403    0.3421 C   0  0  0  0  0  0  0  0  0  0  0  0
    3.6315   -0.3338   -0.2188 C   0  0  0  0  0  0  0  0  0  0  0  0
    5.0581   -0.6750   -0.2779 N   0  0  0  0  0  0  0  0  0  0  0  0
    5.8306    0.1647   -0.7601 O   0  0  0  0  0  0  0  0  0  0  0  0
    5.4031   -1.7834    0.1543 O   0  0  0  0  0  0  0  0  0  0  0  0
    3.1907    0.8918   -0.7282 C   0  0  0  0  0  0  0  0  0  0  0  0
    1.8308    1.2027   -0.6682 C   0  0  0  0  0  0  0  0  0  0  0  0
    1.3136    2.7237   -1.3073 Cl  0  0  0  0  0  0  0  0  0  0  0  0
   -3.0134    2.5979    1.4319 H   0  0  0  0  0  0  0  0  0  0  0  0
   -3.8775    2.8802   -0.0908 H   0  0  0  0  0  0  0  0  0  0  0  0
   -2.1034    2.8521   -0.0619 H   0  0  0  0  0  0  0  0  0  0  0  0
   -3.9484    0.4774    0.5023 H   0  0  0  0  0  0  0  0  0  0  0  0
   -3.0585    0.7391   -0.9968 H   0  0  0  0  0  0  0  0  0  0  0  0
   -3.6852   -1.8512    0.6231 H   0  0  0  0  0  0  0  0  0  0  0  0
   -2.3992   -2.8410    1.3778 H   0  0  0  0  0  0  0  0  0  0  0  0
   -2.8631   -3.1159   -0.3137 H   0  0  0  0  0  0  0  0  0  0  0  0
    0.6825   -1.6449    0.8299 H   0  0  0  0  0  0  0  0  0  0  0  0
    3.0531   -2.1986    0.7405 H   0  0  0  0  0  0  0  0  0  0  0  0
    3.8875    1.6022   -1.1680 H   0  0  0  0  0  0  0  0  0  0  0  0
  1  2  1  0
  2  3  1  0
  3  4  2  0
  3  5  1  0
  5  6  1  0
  3  7  1  0
  7  8  1  0
  8  9  1  0
  9 10  2  0
 10 11  1  0
 11 12  1  0
 12 13  2  0
 12 14  1  0
 11 15  2  0
 15 16  1  0
 16 17  1  0
 16  8  2  0
  1 18  1  0
  1 19  1  0
  1 20  1  0
  2 21  1  0
  2 22  1  0
  6 23  1  0
  6 24  1  0
  6 25  1  0
  9 26  1  0
 10 27  1  0
 15 28  1  0
M  CHG  2  12   1  14  -1
M  END
$$$$
