
     RDKit          3D

 34 35  0  0  0  0  0  0  0  0999 V2000
   -0.4917    1.1253   -2.1287 C   0  0  0  0  0  0  0  0  0  0  0  0
   -0.5561    0.6849   -0.7173 N   0  0  0  0  0  0  0  0  0  0  0  0
   -1.7710    0.0893   -0.2650 C   0  0  0  0  0  0  0  0  0  0  0  0
   -2.7866   -0.2582   -1.1875 C   0  0  0  0  0  0  0  0  0  0  0  0
   -3.9892   -0.8610   -0.7966 C   0  0  0  0  0  0  0  0  0  0  0  0
   -4.2222   -1.1291    0.5416 C   0  0  0  0  0  0  0  0  0  0  0  0
   -5.6957   -1.8695    1.0261 Cl  0  0  0  0  0  0  0  0  0  0  0  0
   -3.2684   -0.7909    1.4898 C   0  0  0  0  0  0  0  0  0  0  0  0
   -2.0607   -0.1843    1.0988 C   0  0  0  0  0  0  0  0  0  0  0  0
   -0.9230    0.2763    2.5591 Br  0  0  0  0  0  0  0  0  0  0  0  0
    0.7461    0.4564   -0.1943 C   0  0  0  0  0  0  0  0  0  0  0  0
    1.5096    1.5297    0.3384 C   0  0  0  0  0  0  0  0  0  0  0  0
    0.9635    2.8764    0.3716 N   0  0  0  0  0  0  0  0  0  0  0  0
    0.6865    3.3415    1.4843 O   0  0  0  0  0  0  0  0  0  0  0  0
    0.8895    3.4825   -0.7055 O   0  0  0  0  0  0  0  0  0  0  0  0
    2.7790    1.3628    0.9067 C   0  0  0  0  0  0  0  0  0  0  0  0
    3.3222    0.0817    0.9432 C   0  0  0  0  0  0  0  0  0  0  0  0
    4.6501   -0.1306    1.5365 N   0  0  0  0  0  0  0  0  0  0  0  0
    5.0612   -1.2952    1.6190 O   0  0  0  0  0  0  0  0  0  0  0  0
    5.2761    0.8701    1.9093 O   0  0  0  0  0  0  0  0  0  0  0  0
    2.6109   -1.0059    0.4150 C   0  0  0  0  0  0  0  0  0  0  0  0
    1.3289   -0.8350   -0.1654 C   0  0  0  0  0  0  0  0  0  0  0  0
    0.6356   -2.0628   -0.7217 C   0  0  0  0  0  0  0  0  0  0  0  0
    1.4980   -3.1054   -0.9084 F   0  0  0  0  0  0  0  0  0  0  0  0
    0.0630   -1.8643   -1.9402 F   0  0  0  0  0  0  0  0  0  0  0  0
   -0.3366   -2.5444    0.0967 F   0  0  0  0  0  0  0  0  0  0  0  0
   -1.2978    1.8358   -2.3455 H   0  0  0  0  0  0  0  0  0  0  0  0
    0.4477    1.6360   -2.3701 H   0  0  0  0  0  0  0  0  0  0  0  0
   -0.5602    0.2767   -2.8183 H   0  0  0  0  0  0  0  0  0  0  0  0
   -2.6676   -0.0906   -2.2545 H   0  0  0  0  0  0  0  0  0  0  0  0
   -4.7317   -1.1180   -1.5482 H   0  0  0  0  0  0  0  0  0  0  0  0
   -3.4689   -0.9913    2.5399 H   0  0  0  0  0  0  0  0  0  0  0  0
    3.3113    2.2180    1.3208 H   0  0  0  0  0  0  0  0  0  0  0  0
    3.0481   -2.0067    0.4481 H   0  0  0  0  0  0  0  0  0  0  0  0
  1  2  1  0
  2  3  1  0
  3  4  1  0
  4  5  2  0
  5  6  1  0
  6  7  1  0
  6  8  2  0
  8  9  1  0
  9 10  1  0
  2 11  1  0
 11 12  2  0
 12 13  1  0
 13 14  2  0
 13 15  1  0
 12 16  1  0
 16 17  2  0
 17 18  1  0
 18 19  2  0
 18 20  1  0
 17 21  1  0
 21 22  2  0
 22 23  1  0
 23 24  1  0
 23 25  1  0
 23 26  1  0
  9  3  2  0
 22 11  1  0
  1 27  1  0
  1 28  1  0
  1 29  1  0
  4 30  1  0
  5 31  1  0
  8 32  1  0
 16 33  1  0
 21 34  1  0
M  CHG  4  13   1  15  -1  18   1  20  -1
M  END
$$$$
