
     RDKit          3D

 36 39  0  0  0  0  0  0  0  0999 V2000
    5.2199   -0.9359   -0.0648 C   0  0  0  0  0  0  0  0  0  0  0  0
    3.8108   -1.1270   -0.0707 O   0  0  0  0  0  0  0  0  0  0  0  0
    3.0080   -0.0173    0.0661 C   0  0  0  0  0  0  0  0  0  0  0  0
    3.5044    1.2690    0.2575 C   0  0  0  0  0  0  0  0  0  0  0  0
    2.6220    2.3268    0.3880 C   0  0  0  0  0  0  0  0  0  0  0  0
    1.2446    2.1004    0.3308 C   0  0  0  0  0  0  0  0  0  0  0  0
    0.6707    0.8157    0.1437 C   0  0  0  0  0  0  0  0  0  0  0  0
    1.6031   -0.2460    0.0063 C   0  0  0  0  0  0  0  0  0  0  0  0
    1.1110   -1.5389   -0.1694 C   0  0  0  0  0  0  0  0  0  0  0  0
   -0.2633   -1.7942   -0.2484 C   0  0  0  0  0  0  0  0  0  0  0  0
   -0.6033   -3.2143   -0.2197 N   0  0  0  0  0  0  0  0  0  0  0  0
   -1.3415   -3.5940    0.7009 O   0  0  0  0  0  0  0  0  0  0  0  0
   -0.0733   -3.9467   -1.0662 O   0  0  0  0  0  0  0  0  0  0  0  0
   -1.2580   -0.7739   -0.1885 C   0  0  0  0  0  0  0  0  0  0  0  0
   -2.6907   -0.9537   -0.3625 C   0  0  0  0  0  0  0  0  0  0  0  0
   -3.2698   -2.1926   -0.9215 C   0  0  0  0  0  0  0  0  0  0  0  0
   -2.8509   -2.7807   -1.8983 O   0  0  0  0  0  0  0  0  0  0  0  0
   -4.3299   -2.6135   -0.2143 O   0  0  0  0  0  0  0  0  0  0  0  0
   -3.6161    0.0762   -0.1687 C   0  0  0  0  0  0  0  0  0  0  0  0
   -3.1220    1.3026    0.1621 C   0  0  0  0  0  0  0  0  0  0  0  0
   -1.7670    1.5382    0.2666 C   0  0  0  0  0  0  0  0  0  0  0  0
   -0.7690    0.5493    0.0776 C   0  0  0  0  0  0  0  0  0  0  0  0
   -1.5542    2.8538    0.5879 O   0  0  0  0  0  0  0  0  0  0  0  0
   -2.8877    3.3825    0.6682 C   0  0  0  0  0  0  0  0  0  0  0  0
   -3.8916    2.4010    0.3823 O   0  0  0  0  0  0  0  0  0  0  0  0
    5.6895   -1.9139   -0.2078 H   0  0  0  0  0  0  0  0  0  0  0  0
    5.5600   -0.5421    0.8985 H   0  0  0  0  0  0  0  0  0  0  0  0
    5.5353   -0.2920   -0.8923 H   0  0  0  0  0  0  0  0  0  0  0  0
    4.5663    1.4813    0.3095 H   0  0  0  0  0  0  0  0  0  0  0  0
    2.9978    3.3368    0.5334 H   0  0  0  0  0  0  0  0  0  0  0  0
    0.6262    2.9861    0.4290 H   0  0  0  0  0  0  0  0  0  0  0  0
    1.8073   -2.3774   -0.2245 H   0  0  0  0  0  0  0  0  0  0  0  0
   -4.5712   -3.4733   -0.6200 H   0  0  0  0  0  0  0  0  0  0  0  0
   -4.6828   -0.0733   -0.3016 H   0  0  0  0  0  0  0  0  0  0  0  0
   -3.0513    3.7746    1.6785 H   0  0  0  0  0  0  0  0  0  0  0  0
   -2.9832    4.2066   -0.0479 H   0  0  0  0  0  0  0  0  0  0  0  0
  1  2  1  0
  2  3  1  0
  3  4  1  0
  4  5  2  0
  5  6  1  0
  6  7  2  0
  7  8  1  0
  8  9  1  0
  9 10  2  0
 10 11  1  0
 11 12  2  0
 11 13  1  0
 10 14  1  0
 14 15  2  0
 15 16  1  0
 16 17  2  0
 16 18  1  0
 15 19  1  0
 19 20  2  0
 20 21  1  0
 21 22  2  0
 21 23  1  0
 23 24  1  0
 24 25  1  0
  8  3  2  0
 22 14  1  0
 22  7  1  0
 25 20  1  0
  1 26  1  0
  1 27  1  0
  1 28  1  0
  4 29  1  0
  5 30  1  0
  6 31  1  0
  9 32  1  0
 18 33  1  0
 19 34  1  0
 24 35  1  0
 24 36  1  0
M  CHG  2  11   1  13  -1
M  END
$$$$
