
     RDKit          3D

 34 34  0  0  0  0  0  0  0  0999 V2000
    2.2906   -2.6521    1.7026 C   0  0  0  0  0  0  0  0  0  0  0  0
    2.0643   -1.4151    0.8882 C   0  0  0  0  0  0  0  0  0  0  0  0
    2.8272   -0.9843    0.0345 O   0  0  0  0  0  0  0  0  0  0  0  0
    0.8502   -0.8379    1.2548 O   0  0  0  0  0  0  0  0  0  0  0  0
    0.5540    0.3645    0.5902 C   0  0  0  0  0  0  0  0  0  0  0  0
    1.3002    1.5355    0.8593 C   0  0  0  0  0  0  0  0  0  0  0  0
    2.3419    1.5567    1.8859 N   0  0  0  0  0  0  0  0  0  0  0  0
    3.3187    2.2921    1.6888 O   0  0  0  0  0  0  0  0  0  0  0  0
    2.1661    0.8707    2.9024 O   0  0  0  0  0  0  0  0  0  0  0  0
    1.0446    2.7284    0.1765 C   0  0  0  0  0  0  0  0  0  0  0  0
    0.0185    2.7459   -0.7660 C   0  0  0  0  0  0  0  0  0  0  0  0
   -0.2706    3.9877   -1.4997 N   0  0  0  0  0  0  0  0  0  0  0  0
   -1.1081    3.9367   -2.4104 O   0  0  0  0  0  0  0  0  0  0  0  0
    0.3374    5.0102   -1.1564 O   0  0  0  0  0  0  0  0  0  0  0  0
   -0.7597    1.5972   -1.0082 C   0  0  0  0  0  0  0  0  0  0  0  0
   -0.5304    0.3791   -0.3255 C   0  0  0  0  0  0  0  0  0  0  0  0
   -1.4370   -0.8506   -0.5904 C   0  0  0  0  0  0  0  0  0  0  0  0
   -0.6382   -1.9645   -1.2972 C   0  0  0  0  0  0  0  0  0  0  0  0
   -2.6516   -0.5408   -1.5065 C   0  0  0  0  0  0  0  0  0  0  0  0
   -2.0376   -1.3905    0.7280 C   0  0  0  0  0  0  0  0  0  0  0  0
    1.4847   -3.3676    1.5215 H   0  0  0  0  0  0  0  0  0  0  0  0
    3.2378   -3.1114    1.4063 H   0  0  0  0  0  0  0  0  0  0  0  0
    2.3447   -2.3924    2.7626 H   0  0  0  0  0  0  0  0  0  0  0  0
    1.6325    3.6219    0.3820 H   0  0  0  0  0  0  0  0  0  0  0  0
   -1.5583    1.6735   -1.7437 H   0  0  0  0  0  0  0  0  0  0  0  0
   -1.2925   -2.7942   -1.5906 H   0  0  0  0  0  0  0  0  0  0  0  0
    0.1377   -2.3945   -0.6610 H   0  0  0  0  0  0  0  0  0  0  0  0
   -0.1518   -1.5877   -2.2046 H   0  0  0  0  0  0  0  0  0  0  0  0
   -3.2879   -1.4253   -1.6342 H   0  0  0  0  0  0  0  0  0  0  0  0
   -2.3362   -0.2359   -2.5112 H   0  0  0  0  0  0  0  0  0  0  0  0
   -3.2828    0.2506   -1.0855 H   0  0  0  0  0  0  0  0  0  0  0  0
   -2.7712   -2.1821    0.5325 H   0  0  0  0  0  0  0  0  0  0  0  0
   -2.5482   -0.5944    1.2826 H   0  0  0  0  0  0  0  0  0  0  0  0
   -1.2890   -1.8295    1.3924 H   0  0  0  0  0  0  0  0  0  0  0  0
  1  2  1  0
  2  3  2  0
  2  4  1  0
  4  5  1  0
  5  6  2  0
  6  7  1  0
  7  8  2  0
  7  9  1  0
  6 10  1  0
 10 11  2  0
 11 12  1  0
 12 13  2  0
 12 14  1  0
 11 15  1  0
 15 16  2  0
 16 17  1  0
 17 18  1  0
 17 19  1  0
 17 20  1  0
 16  5  1  0
  1 21  1  0
  1 22  1  0
  1 23  1  0
 10 24  1  0
 15 25  1  0
 18 26  1  0
 18 27  1  0
 18 28  1  0
 19 29  1  0
 19 30  1  0
 19 31  1  0
 20 32  1  0
 20 33  1  0
 20 34  1  0
M  CHG  4   7   1   9  -1  12   1  14  -1
M  END
$$$$
