
     RDKit          3D

 32 32  0  0  0  0  0  0  0  0999 V2000
   -2.8035   -2.0806   -2.1641 C   0  0  0  0  0  0  0  0  0  0  0  0
   -2.6058   -1.7659   -0.6952 C   0  0  0  0  0  0  0  0  0  0  0  0
   -1.3738   -1.0803   -0.5435 O   0  0  0  0  0  0  0  0  0  0  0  0
   -0.9966   -0.4873    0.9161 P   0  0  0  0  0  0  0  0  0  0  0  0
   -0.7872   -1.7716    2.3547 S   0  0  0  0  0  0  0  0  0  0  0  0
   -2.1688    0.6144    1.1090 O   0  0  0  0  0  0  0  0  0  0  0  0
   -2.0797    1.5128    2.2024 C   0  0  0  0  0  0  0  0  0  0  0  0
   -3.1362    2.5854    2.0309 C   0  0  0  0  0  0  0  0  0  0  0  0
    0.2716    0.4575    0.5770 O   0  0  0  0  0  0  0  0  0  0  0  0
    1.4880    0.0490    0.1104 C   0  0  0  0  0  0  0  0  0  0  0  0
    1.7798   -1.2454   -0.3195 C   0  0  0  0  0  0  0  0  0  0  0  0
    3.0625   -1.5623   -0.7897 C   0  0  0  0  0  0  0  0  0  0  0  0
    4.0634   -0.5893   -0.8342 C   0  0  0  0  0  0  0  0  0  0  0  0
    5.6058   -1.0395   -1.4579 Cl  0  0  0  0  0  0  0  0  0  0  0  0
    3.7533    0.6967   -0.3999 C   0  0  0  0  0  0  0  0  0  0  0  0
    4.7527    1.7363   -0.4190 N   0  0  0  0  0  0  0  0  0  0  0  0
    5.6669    1.6568    0.4109 O   0  0  0  0  0  0  0  0  0  0  0  0
    4.5878    2.6527   -1.2345 O   0  0  0  0  0  0  0  0  0  0  0  0
    2.4758    1.0318    0.0660 C   0  0  0  0  0  0  0  0  0  0  0  0
   -1.9743   -2.6874   -2.5433 H   0  0  0  0  0  0  0  0  0  0  0  0
   -3.7398   -2.6230   -2.3238 H   0  0  0  0  0  0  0  0  0  0  0  0
   -2.8219   -1.1599   -2.7571 H   0  0  0  0  0  0  0  0  0  0  0  0
   -3.4286   -1.1422   -0.3329 H   0  0  0  0  0  0  0  0  0  0  0  0
   -2.5817   -2.6944   -0.1173 H   0  0  0  0  0  0  0  0  0  0  0  0
   -1.0852    1.9696    2.2330 H   0  0  0  0  0  0  0  0  0  0  0  0
   -2.2503    0.9683    3.1360 H   0  0  0  0  0  0  0  0  0  0  0  0
   -4.1357    2.1390    1.9887 H   0  0  0  0  0  0  0  0  0  0  0  0
   -2.9887    3.1256    1.0897 H   0  0  0  0  0  0  0  0  0  0  0  0
   -3.1033    3.3005    2.8576 H   0  0  0  0  0  0  0  0  0  0  0  0
    1.0334   -2.0354   -0.3134 H   0  0  0  0  0  0  0  0  0  0  0  0
    3.2678   -2.5774   -1.1258 H   0  0  0  0  0  0  0  0  0  0  0  0
    2.2524    2.0454    0.3920 H   0  0  0  0  0  0  0  0  0  0  0  0
  1  2  1  0
  2  3  1  0
  3  4  1  0
  4  5  2  0
  4  6  1  0
  6  7  1  0
  7  8  1  0
  4  9  1  0
  9 10  1  0
 10 11  1  0
 11 12  2  0
 12 13  1  0
 13 14  1  0
 13 15  2  0
 15 16  1  0
 16 17  2  0
 16 18  1  0
 15 19  1  0
 19 10  2  0
  1 20  1  0
  1 21  1  0
  1 22  1  0
  2 23  1  0
  2 24  1  0
  7 25  1  0
  7 26  1  0
  8 27  1  0
  8 28  1  0
  8 29  1  0
 11 30  1  0
 12 31  1  0
 19 32  1  0
M  CHG  2  16   1  18  -1
M  END
$$$$
