
     RDKit          3D

 16 16  0  0  0  0  0  0  0  0999 V2000
   -3.4952    0.3679   -0.4160 O   0  0  0  0  0  0  0  0  0  0  0  0
   -2.4367    1.0107   -0.4011 N   0  0  0  0  0  0  0  0  0  0  0  0
   -2.3518    2.2341   -0.5724 O   0  0  0  0  0  0  0  0  0  0  0  0
   -1.1909    0.2688   -0.1629 C   0  0  0  0  0  0  0  0  0  0  0  0
   -1.2405   -1.1197    0.0364 C   0  0  0  0  0  0  0  0  0  0  0  0
   -0.0600   -1.8306    0.2633 C   0  0  0  0  0  0  0  0  0  0  0  0
    1.1657   -1.1618    0.2917 C   0  0  0  0  0  0  0  0  0  0  0  0
    1.2071    0.2268    0.0916 C   0  0  0  0  0  0  0  0  0  0  0  0
    2.5001    0.9243    0.1227 N   0  0  0  0  0  0  0  0  0  0  0  0
    2.4955    2.1492   -0.0581 O   0  0  0  0  0  0  0  0  0  0  0  0
    3.5153    0.2451    0.3278 O   0  0  0  0  0  0  0  0  0  0  0  0
    0.0313    0.9544   -0.1373 C   0  0  0  0  0  0  0  0  0  0  0  0
   -2.1866   -1.6593    0.0180 H   0  0  0  0  0  0  0  0  0  0  0  0
   -0.0953   -2.9078    0.4183 H   0  0  0  0  0  0  0  0  0  0  0  0
    2.0754   -1.7339    0.4702 H   0  0  0  0  0  0  0  0  0  0  0  0
    0.0666    2.0318   -0.2923 H   0  0  0  0  0  0  0  0  0  0  0  0
  1  2  2  0
  2  3  1  0
  2  4  1  0
  4  5  1  0
  5  6  2  0
  6  7  1  0
  7  8  2  0
  8  9  1  0
  9 10  2  0
  9 11  1  0
  8 12  1  0
 12  4  2  0
  5 13  1  0
  6 14  1  0
  7 15  1  0
 12 16  1  0
M  CHG  4   2   1   3  -1   9   1  11  -1
M  END
$$$$
