
     RDKit          3D

 32 32  0  0  0  0  0  0  0  0999 V2000
   -1.5074    2.8745    1.2885 C   0  0  0  0  0  0  0  0  0  0  0  0
   -1.8131    1.5677    0.5882 C   0  0  0  0  0  0  0  0  0  0  0  0
   -1.2700    0.5091    1.3582 O   0  0  0  0  0  0  0  0  0  0  0  0
   -1.0586   -0.9417    0.6706 P   0  0  0  0  0  0  0  0  0  0  0  0
   -0.5973   -2.3705    1.8930 S   0  0  0  0  0  0  0  0  0  0  0  0
   -2.4430   -1.1158   -0.1495 O   0  0  0  0  0  0  0  0  0  0  0  0
   -2.5676   -2.2120   -1.0411 C   0  0  0  0  0  0  0  0  0  0  0  0
   -3.8289   -2.0226   -1.8588 C   0  0  0  0  0  0  0  0  0  0  0  0
   -0.0075   -0.6242   -0.5148 O   0  0  0  0  0  0  0  0  0  0  0  0
    1.3215   -0.3337   -0.3624 C   0  0  0  0  0  0  0  0  0  0  0  0
    1.8464    0.2472    0.7915 C   0  0  0  0  0  0  0  0  0  0  0  0
    3.2198    0.5342    0.8445 C   0  0  0  0  0  0  0  0  0  0  0  0
    3.7294    1.1516    2.0485 N   0  0  0  0  0  0  0  0  0  0  0  0
    4.5048    0.4847    2.7429 O   0  0  0  0  0  0  0  0  0  0  0  0
    3.3137    2.2894    2.3049 O   0  0  0  0  0  0  0  0  0  0  0  0
    4.0722    0.2665   -0.2268 C   0  0  0  0  0  0  0  0  0  0  0  0
    5.7520    0.6560   -0.2283 Cl  0  0  0  0  0  0  0  0  0  0  0  0
    3.5375   -0.3142   -1.3785 C   0  0  0  0  0  0  0  0  0  0  0  0
    2.1713   -0.6088   -1.4456 C   0  0  0  0  0  0  0  0  0  0  0  0
    1.5586   -1.3206   -2.8959 Cl  0  0  0  0  0  0  0  0  0  0  0  0
   -1.9119    3.7212    0.7280 H   0  0  0  0  0  0  0  0  0  0  0  0
   -1.9340    2.8814    2.2968 H   0  0  0  0  0  0  0  0  0  0  0  0
   -0.4262    3.0075    1.4004 H   0  0  0  0  0  0  0  0  0  0  0  0
   -1.3780    1.5730   -0.4153 H   0  0  0  0  0  0  0  0  0  0  0  0
   -2.8948    1.4307    0.5033 H   0  0  0  0  0  0  0  0  0  0  0  0
   -2.6320   -3.1410   -0.4687 H   0  0  0  0  0  0  0  0  0  0  0  0
   -1.6973   -2.2575   -1.7030 H   0  0  0  0  0  0  0  0  0  0  0  0
   -3.7932   -1.0770   -2.4105 H   0  0  0  0  0  0  0  0  0  0  0  0
   -3.9612   -2.8422   -2.5711 H   0  0  0  0  0  0  0  0  0  0  0  0
   -4.7071   -1.9759   -1.2058 H   0  0  0  0  0  0  0  0  0  0  0  0
    1.2216    0.4942    1.6462 H   0  0  0  0  0  0  0  0  0  0  0  0
    4.1801   -0.5312   -2.2294 H   0  0  0  0  0  0  0  0  0  0  0  0
  1  2  1  0
  2  3  1  0
  3  4  1  0
  4  5  2  0
  4  6  1  0
  6  7  1  0
  7  8  1  0
  4  9  1  0
  9 10  1  0
 10 11  2  0
 11 12  1  0
 12 13  1  0
 13 14  2  0
 13 15  1  0
 12 16  2  0
 16 17  1  0
 16 18  1  0
 18 19  2  0
 19 20  1  0
 19 10  1  0
  1 21  1  0
  1 22  1  0
  1 23  1  0
  2 24  1  0
  2 25  1  0
  7 26  1  0
  7 27  1  0
  8 28  1  0
  8 29  1  0
  8 30  1  0
 11 31  1  0
 18 32  1  0
M  CHG  2  13   1  15  -1
M  END
$$$$
