
     RDKit          3D

 24 25  0  0  0  0  0  0  0  0999 V2000
   -5.1097    0.9371    0.5578 O   0  0  0  0  0  0  0  0  0  0  0  0
   -4.5402    0.0519   -0.0966 N   0  0  0  0  0  0  0  0  0  0  0  0
   -5.1244   -0.8202   -0.7557 O   0  0  0  0  0  0  0  0  0  0  0  0
   -3.0723    0.0351   -0.0906 C   0  0  0  0  0  0  0  0  0  0  0  0
   -2.3692    1.0106    0.6245 C   0  0  0  0  0  0  0  0  0  0  0  0
   -0.9704    0.9884    0.6262 C   0  0  0  0  0  0  0  0  0  0  0  0
   -0.2566    0.0029   -0.0792 C   0  0  0  0  0  0  0  0  0  0  0  0
    1.2156   -0.0139   -0.0731 C   0  0  0  0  0  0  0  0  0  0  0  0
    1.9445   -0.0233   -1.2743 C   0  0  0  0  0  0  0  0  0  0  0  0
    3.3420   -0.0387   -1.2693 C   0  0  0  0  0  0  0  0  0  0  0  0
    4.0349   -0.0461   -0.0616 C   0  0  0  0  0  0  0  0  0  0  0  0
    3.3321   -0.0375    1.1404 C   0  0  0  0  0  0  0  0  0  0  0  0
    1.9347   -0.0210    1.1339 C   0  0  0  0  0  0  0  0  0  0  0  0
   -0.9870   -0.9660   -0.7905 C   0  0  0  0  0  0  0  0  0  0  0  0
   -2.3859   -0.9563   -0.8001 C   0  0  0  0  0  0  0  0  0  0  0  0
   -2.8867    1.7907    1.1790 H   0  0  0  0  0  0  0  0  0  0  0  0
   -0.4333    1.7597    1.1770 H   0  0  0  0  0  0  0  0  0  0  0  0
    1.4249   -0.0064   -2.2303 H   0  0  0  0  0  0  0  0  0  0  0  0
    3.8877   -0.0422   -2.2093 H   0  0  0  0  0  0  0  0  0  0  0  0
    5.1217   -0.0585   -0.0571 H   0  0  0  0  0  0  0  0  0  0  0  0
    3.8701   -0.0464    2.0849 H   0  0  0  0  0  0  0  0  0  0  0  0
    1.4070   -0.0260    2.0856 H   0  0  0  0  0  0  0  0  0  0  0  0
   -0.4632   -1.7495   -1.3369 H   0  0  0  0  0  0  0  0  0  0  0  0
   -2.9165   -1.7244   -1.3589 H   0  0  0  0  0  0  0  0  0  0  0  0
  1  2  2  0
  2  3  1  0
  2  4  1  0
  4  5  1  0
  5  6  2  0
  6  7  1  0
  7  8  1  0
  8  9  2  0
  9 10  1  0
 10 11  2  0
 11 12  1  0
 12 13  2  0
  7 14  2  0
 14 15  1  0
 15  4  2  0
 13  8  1  0
  5 16  1  0
  6 17  1  0
  9 18  1  0
 10 19  1  0
 11 20  1  0
 12 21  1  0
 13 22  1  0
 14 23  1  0
 15 24  1  0
M  CHG  2   2   1   3  -1
M  END
$$$$
