
     RDKit          3D

 26 26  0  0  0  0  0  0  0  0999 V2000
    3.0122   -2.3239    0.2115 C   0  0  0  0  0  0  0  0  0  0  0  0
    2.9362   -1.0110   -0.3084 O   0  0  0  0  0  0  0  0  0  0  0  0
    1.8798    0.0216    0.3581 P   0  0  0  0  0  0  0  0  0  0  0  0
    2.1490    0.4211    2.2374 S   0  0  0  0  0  0  0  0  0  0  0  0
    1.9778    1.2664   -0.6744 O   0  0  0  0  0  0  0  0  0  0  0  0
    3.2032    1.9660   -0.7665 C   0  0  0  0  0  0  0  0  0  0  0  0
    0.4720   -0.6548   -0.0616 O   0  0  0  0  0  0  0  0  0  0  0  0
   -0.7669   -0.0918    0.0493 C   0  0  0  0  0  0  0  0  0  0  0  0
   -1.0076    1.2361    0.4014 C   0  0  0  0  0  0  0  0  0  0  0  0
   -2.3216    1.7201    0.4798 C   0  0  0  0  0  0  0  0  0  0  0  0
   -3.4049    0.8822    0.2067 C   0  0  0  0  0  0  0  0  0  0  0  0
   -4.9907    1.5531    0.2869 Cl  0  0  0  0  0  0  0  0  0  0  0  0
   -3.1446   -0.4402   -0.1421 C   0  0  0  0  0  0  0  0  0  0  0  0
   -4.2278   -1.3475   -0.4302 N   0  0  0  0  0  0  0  0  0  0  0  0
   -4.3483   -1.7158   -1.6058 O   0  0  0  0  0  0  0  0  0  0  0  0
   -4.9189   -1.7237    0.5244 O   0  0  0  0  0  0  0  0  0  0  0  0
   -1.8387   -0.9382   -0.2309 C   0  0  0  0  0  0  0  0  0  0  0  0
    3.5815   -2.9422   -0.4872 H   0  0  0  0  0  0  0  0  0  0  0  0
    2.0147   -2.7558    0.3284 H   0  0  0  0  0  0  0  0  0  0  0  0
    3.5306   -2.3165    1.1735 H   0  0  0  0  0  0  0  0  0  0  0  0
    3.1560    2.6374   -1.6278 H   0  0  0  0  0  0  0  0  0  0  0  0
    4.0378    1.2744   -0.9080 H   0  0  0  0  0  0  0  0  0  0  0  0
    3.3629    2.5645    0.1338 H   0  0  0  0  0  0  0  0  0  0  0  0
   -0.1989    1.9303    0.6137 H   0  0  0  0  0  0  0  0  0  0  0  0
   -2.4874    2.7613    0.7518 H   0  0  0  0  0  0  0  0  0  0  0  0
   -1.6576   -1.9731   -0.5136 H   0  0  0  0  0  0  0  0  0  0  0  0
  1  2  1  0
  2  3  1  0
  3  4  2  0
  3  5  1  0
  5  6  1  0
  3  7  1  0
  7  8  1  0
  8  9  1  0
  9 10  2  0
 10 11  1  0
 11 12  1  0
 11 13  2  0
 13 14  1  0
 14 15  2  0
 14 16  1  0
 13 17  1  0
 17  8  2  0
  1 18  1  0
  1 19  1  0
  1 20  1  0
  6 21  1  0
  6 22  1  0
  6 23  1  0
  9 24  1  0
 10 25  1  0
 17 26  1  0
M  CHG  2  14   1  16  -1
M  END
$$$$
