
     RDKit          3D

 29 30  0  0  0  0  0  0  0  0999 V2000
   -0.4208    1.7883   -1.1917 O   0  0  0  0  0  0  0  0  0  0  0  0
   -0.7765    0.7647   -0.6160 C   0  0  0  0  0  0  0  0  0  0  0  0
    0.0654   -0.1207    0.0246 N   0  0  0  0  0  0  0  0  0  0  0  0
    1.4715   -0.0590    0.1639 C   0  0  0  0  0  0  0  0  0  0  0  0
    2.2456    0.9840   -0.3574 C   0  0  0  0  0  0  0  0  0  0  0  0
    3.6364    0.9979   -0.1932 C   0  0  0  0  0  0  0  0  0  0  0  0
    4.2645   -0.0427    0.4988 C   0  0  0  0  0  0  0  0  0  0  0  0
    5.7225   -0.0321    0.6670 N   0  0  0  0  0  0  0  0  0  0  0  0
    6.3462    0.9457    0.2323 O   0  0  0  0  0  0  0  0  0  0  0  0
    6.2420   -1.0032    1.2348 O   0  0  0  0  0  0  0  0  0  0  0  0
    3.5137   -1.0943    1.0310 C   0  0  0  0  0  0  0  0  0  0  0  0
    2.1262   -1.0952    0.8612 C   0  0  0  0  0  0  0  0  0  0  0  0
    1.2378   -2.4199    1.5379 Cl  0  0  0  0  0  0  0  0  0  0  0  0
   -2.2422    0.4306   -0.5967 C   0  0  0  0  0  0  0  0  0  0  0  0
   -3.1102    1.3379   -1.2295 C   0  0  0  0  0  0  0  0  0  0  0  0
   -4.4837    1.1025   -1.2561 C   0  0  0  0  0  0  0  0  0  0  0  0
   -5.5303    2.2239   -2.0345 Cl  0  0  0  0  0  0  0  0  0  0  0  0
   -5.0177   -0.0348   -0.6566 C   0  0  0  0  0  0  0  0  0  0  0  0
   -4.1724   -0.9468   -0.0248 C   0  0  0  0  0  0  0  0  0  0  0  0
   -2.7932   -0.7147    0.0040 C   0  0  0  0  0  0  0  0  0  0  0  0
   -1.9907   -1.6307    0.6308 O   0  0  0  0  0  0  0  0  0  0  0  0
   -0.3824   -0.9323    0.4520 H   0  0  0  0  0  0  0  0  0  0  0  0
    1.7974    1.8094   -0.9030 H   0  0  0  0  0  0  0  0  0  0  0  0
    4.2058    1.8251   -0.6141 H   0  0  0  0  0  0  0  0  0  0  0  0
    3.9918   -1.9082    1.5717 H   0  0  0  0  0  0  0  0  0  0  0  0
   -2.7127    2.2334   -1.7043 H   0  0  0  0  0  0  0  0  0  0  0  0
   -6.0898   -0.2152   -0.6783 H   0  0  0  0  0  0  0  0  0  0  0  0
   -4.6074   -1.8286    0.4379 H   0  0  0  0  0  0  0  0  0  0  0  0
   -2.5370   -2.3649    0.9664 H   0  0  0  0  0  0  0  0  0  0  0  0
  1  2  2  0
  2  3  1  0
  3  4  1  0
  4  5  1  0
  5  6  2  0
  6  7  1  0
  7  8  1  0
  8  9  2  0
  8 10  1  0
  7 11  2  0
 11 12  1  0
 12 13  1  0
  2 14  1  0
 14 15  1  0
 15 16  2  0
 16 17  1  0
 16 18  1  0
 18 19  2  0
 19 20  1  0
 20 21  1  0
 12  4  2  0
 20 14  2  0
  3 22  1  0
  5 23  1  0
  6 24  1  0
 11 25  1  0
 15 26  1  0
 18 27  1  0
 19 28  1  0
 21 29  1  0
M  CHG  2   8   1  10  -1
M  END
$$$$
