
     RDKit          3D

 32 32  0  0  0  0  0  0  0  0999 V2000
    4.8844   -0.8201    1.9791 O   0  0  0  0  0  0  0  0  0  0  0  0
    4.7519    0.2426    1.3555 N   0  0  0  0  0  0  0  0  0  0  0  0
    5.6140    1.1302    1.2856 O   0  0  0  0  0  0  0  0  0  0  0  0
    3.4835    0.4681    0.6517 C   0  0  0  0  0  0  0  0  0  0  0  0
    2.4281   -0.4388    0.8132 C   0  0  0  0  0  0  0  0  0  0  0  0
    1.2180   -0.2211    0.1445 C   0  0  0  0  0  0  0  0  0  0  0  0
    1.0633    0.8935   -0.6787 C   0  0  0  0  0  0  0  0  0  0  0  0
   -0.0739    1.2004   -1.3695 O   0  0  0  0  0  0  0  0  0  0  0  0
   -1.4808    0.4218   -1.3309 P   0  0  0  0  0  0  0  0  0  0  0  0
   -2.5661    1.0325   -2.1624 O   0  0  0  0  0  0  0  0  0  0  0  0
   -1.1255   -1.0965   -1.7380 O   0  0  0  0  0  0  0  0  0  0  0  0
   -2.2185   -1.9976   -1.8520 C   0  0  0  0  0  0  0  0  0  0  0  0
   -1.7631   -3.4077   -1.5098 C   0  0  0  0  0  0  0  0  0  0  0  0
   -1.3981   -3.5457    0.2326 Cl  0  0  0  0  0  0  0  0  0  0  0  0
   -1.8476    0.3111    0.2366 O   0  0  0  0  0  0  0  0  0  0  0  0
   -2.3269    1.4935    0.8612 C   0  0  0  0  0  0  0  0  0  0  0  0
   -2.2378    1.3235    2.3690 C   0  0  0  0  0  0  0  0  0  0  0  0
   -2.8131    2.7786    3.2059 Cl  0  0  0  0  0  0  0  0  0  0  0  0
    2.1225    1.7930   -0.8381 C   0  0  0  0  0  0  0  0  0  0  0  0
    3.3347    1.5880   -0.1738 C   0  0  0  0  0  0  0  0  0  0  0  0
    2.5279   -1.3138    1.4524 H   0  0  0  0  0  0  0  0  0  0  0  0
    0.4205   -0.9450    0.2871 H   0  0  0  0  0  0  0  0  0  0  0  0
   -2.5664   -1.9649   -2.8893 H   0  0  0  0  0  0  0  0  0  0  0  0
   -3.0484   -1.6888   -1.2062 H   0  0  0  0  0  0  0  0  0  0  0  0
   -0.8498   -3.6720   -2.0514 H   0  0  0  0  0  0  0  0  0  0  0  0
   -2.5458   -4.1361   -1.7389 H   0  0  0  0  0  0  0  0  0  0  0  0
   -1.7267    2.3506    0.5353 H   0  0  0  0  0  0  0  0  0  0  0  0
   -3.3646    1.6540    0.5474 H   0  0  0  0  0  0  0  0  0  0  0  0
   -1.2039    1.1322    2.6766 H   0  0  0  0  0  0  0  0  0  0  0  0
   -2.8397    0.4707    2.7016 H   0  0  0  0  0  0  0  0  0  0  0  0
    2.0044    2.6607   -1.4843 H   0  0  0  0  0  0  0  0  0  0  0  0
    4.1435    2.3031   -0.3119 H   0  0  0  0  0  0  0  0  0  0  0  0
  1  2  2  0
  2  3  1  0
  2  4  1  0
  4  5  1  0
  5  6  2  0
  6  7  1  0
  7  8  1  0
  8  9  1  0
  9 10  2  0
  9 11  1  0
 11 12  1  0
 12 13  1  0
 13 14  1  0
  9 15  1  0
 15 16  1  0
 16 17  1  0
 17 18  1  0
  7 19  2  0
 19 20  1  0
 20  4  2  0
  5 21  1  0
  6 22  1  0
 12 23  1  0
 12 24  1  0
 13 25  1  0
 13 26  1  0
 16 27  1  0
 16 28  1  0
 17 29  1  0
 17 30  1  0
 19 31  1  0
 20 32  1  0
M  CHG  2   2   1   3  -1
M  END
$$$$
