
     RDKit          3D

 23 24  0  0  0  0  0  0  0  0999 V2000
    5.1580    0.8268   -0.5023 O   0  0  0  0  0  0  0  0  0  0  0  0
    4.4676    0.1549    0.2771 N   0  0  0  0  0  0  0  0  0  0  0  0
    4.9155   -0.4880    1.2374 O   0  0  0  0  0  0  0  0  0  0  0  0
    3.0180    0.1175    0.0476 C   0  0  0  0  0  0  0  0  0  0  0  0
    2.1967   -0.6277    0.9035 C   0  0  0  0  0  0  0  0  0  0  0  0
    0.8142   -0.6628    0.6841 C   0  0  0  0  0  0  0  0  0  0  0  0
    0.2534    0.0419   -0.3838 C   0  0  0  0  0  0  0  0  0  0  0  0
   -1.0739    0.0908   -0.7072 O   0  0  0  0  0  0  0  0  0  0  0  0
   -1.9762   -0.6415    0.1224 C   0  0  0  0  0  0  0  0  0  0  0  0
   -3.3544   -0.4590   -0.4229 C   0  0  0  0  0  0  0  0  0  0  0  0
   -4.2175    0.6986    0.0012 C   0  0  0  0  0  0  0  0  0  0  0  0
   -4.4060   -0.6209    0.5371 O   0  0  0  0  0  0  0  0  0  0  0  0
    1.0841    0.7827   -1.2322 C   0  0  0  0  0  0  0  0  0  0  0  0
    2.4652    0.8260   -1.0242 C   0  0  0  0  0  0  0  0  0  0  0  0
    2.6128   -1.1840    1.7415 H   0  0  0  0  0  0  0  0  0  0  0  0
    0.2068   -1.2501    1.3662 H   0  0  0  0  0  0  0  0  0  0  0  0
   -1.7299   -1.7095    0.0971 H   0  0  0  0  0  0  0  0  0  0  0  0
   -1.9215   -0.2731    1.1542 H   0  0  0  0  0  0  0  0  0  0  0  0
   -3.4889   -0.8837   -1.4081 H   0  0  0  0  0  0  0  0  0  0  0  0
   -4.9608    1.0657   -0.6954 H   0  0  0  0  0  0  0  0  0  0  0  0
   -3.7975    1.4528    0.6548 H   0  0  0  0  0  0  0  0  0  0  0  0
    0.6489    1.3321   -2.0648 H   0  0  0  0  0  0  0  0  0  0  0  0
    3.0854    1.4105   -1.7004 H   0  0  0  0  0  0  0  0  0  0  0  0
  1  2  2  0
  2  3  1  0
  2  4  1  0
  4  5  1  0
  5  6  2  0
  6  7  1  0
  7  8  1  0
  8  9  1  0
  9 10  1  0
 10 11  1  0
 11 12  1  0
  7 13  2  0
 13 14  1  0
 14  4  2  0
 12 10  1  0
  5 15  1  0
  6 16  1  0
  9 17  1  0
  9 18  1  0
 10 19  1  0
 11 20  1  0
 11 21  1  0
 13 22  1  0
 14 23  1  0
M  CHG  2   2   1   3  -1
M  END
$$$$
