
     RDKit          3D

 35 35  0  0  0  0  0  0  0  0999 V2000
   -2.1712   -1.7967    2.8654 C   0  0  0  0  0  0  0  0  0  0  0  0
   -1.2522   -0.9509    2.1987 O   0  0  0  0  0  0  0  0  0  0  0  0
   -1.3398   -0.8494    0.5831 P   0  0  0  0  0  0  0  0  0  0  0  0
   -1.1103   -2.5016   -0.4125 S   0  0  0  0  0  0  0  0  0  0  0  0
   -0.3220    0.3704    0.2516 O   0  0  0  0  0  0  0  0  0  0  0  0
    1.0349    0.2215    0.2850 C   0  0  0  0  0  0  0  0  0  0  0  0
    1.7044   -0.1660    1.4423 C   0  0  0  0  0  0  0  0  0  0  0  0
    3.0941   -0.2805    1.4245 C   0  0  0  0  0  0  0  0  0  0  0  0
    3.7995    0.0059    0.2442 C   0  0  0  0  0  0  0  0  0  0  0  0
    5.2516   -0.1395    0.2835 N   0  0  0  0  0  0  0  0  0  0  0  0
    5.7891   -0.7827   -0.6285 O   0  0  0  0  0  0  0  0  0  0  0  0
    5.8440    0.3782    1.2422 O   0  0  0  0  0  0  0  0  0  0  0  0
    3.1397    0.4310   -0.9249 C   0  0  0  0  0  0  0  0  0  0  0  0
    3.8566    0.7563   -2.2059 C   0  0  0  0  0  0  0  0  0  0  0  0
    1.7399    0.5327   -0.8826 C   0  0  0  0  0  0  0  0  0  0  0  0
   -2.7741   -0.1141    0.4080 O   0  0  0  0  0  0  0  0  0  0  0  0
   -3.1131    0.4412   -0.8582 C   0  0  0  0  0  0  0  0  0  0  0  0
   -4.4399   -0.1588   -1.2993 C   0  0  0  0  0  0  0  0  0  0  0  0
   -3.2126    1.9532   -0.7041 C   0  0  0  0  0  0  0  0  0  0  0  0
   -2.1180   -1.5938    3.9388 H   0  0  0  0  0  0  0  0  0  0  0  0
   -3.1927   -1.6075    2.5242 H   0  0  0  0  0  0  0  0  0  0  0  0
   -1.9090   -2.8447    2.6923 H   0  0  0  0  0  0  0  0  0  0  0  0
    1.1672   -0.3649    2.3657 H   0  0  0  0  0  0  0  0  0  0  0  0
    3.6177   -0.5853    2.3301 H   0  0  0  0  0  0  0  0  0  0  0  0
    4.7212    1.4010   -2.0179 H   0  0  0  0  0  0  0  0  0  0  0  0
    3.2040    1.2985   -2.8995 H   0  0  0  0  0  0  0  0  0  0  0  0
    4.1827   -0.1641   -2.7015 H   0  0  0  0  0  0  0  0  0  0  0  0
    1.1879    0.8500   -1.7656 H   0  0  0  0  0  0  0  0  0  0  0  0
   -2.3445    0.2037   -1.6024 H   0  0  0  0  0  0  0  0  0  0  0  0
   -5.2336    0.0660   -0.5777 H   0  0  0  0  0  0  0  0  0  0  0  0
   -4.3674   -1.2512   -1.3542 H   0  0  0  0  0  0  0  0  0  0  0  0
   -4.7374    0.2179   -2.2827 H   0  0  0  0  0  0  0  0  0  0  0  0
   -3.9552    2.2239    0.0553 H   0  0  0  0  0  0  0  0  0  0  0  0
   -2.2563    2.3683   -0.3675 H   0  0  0  0  0  0  0  0  0  0  0  0
   -3.4852    2.4320   -1.6501 H   0  0  0  0  0  0  0  0  0  0  0  0
  1  2  1  0
  2  3  1  0
  3  4  2  0
  3  5  1  0
  5  6  1  0
  6  7  1  0
  7  8  2  0
  8  9  1  0
  9 10  1  0
 10 11  2  0
 10 12  1  0
  9 13  2  0
 13 14  1  0
 13 15  1  0
  3 16  1  0
 16 17  1  0
 17 18  1  0
 17 19  1  0
 15  6  2  0
  1 20  1  0
  1 21  1  0
  1 22  1  0
  7 23  1  0
  8 24  1  0
 14 25  1  0
 14 26  1  0
 14 27  1  0
 15 28  1  0
 17 29  1  0
 18 30  1  0
 18 31  1  0
 18 32  1  0
 19 33  1  0
 19 34  1  0
 19 35  1  0
M  CHG  2  10   1  12  -1
M  END
$$$$
