
     RDKit          3D

 19 19  0  0  0  0  0  0  0  0999 V2000
   -0.7188    2.6515    0.1442 C   0  0  0  0  0  0  0  0  0  0  0  0
   -0.3217    1.2067    0.0395 C   0  0  0  0  0  0  0  0  0  0  0  0
    1.0085    0.8199    0.2561 C   0  0  0  0  0  0  0  0  0  0  0  0
    1.3696   -0.5356    0.1881 C   0  0  0  0  0  0  0  0  0  0  0  0
    2.7697   -0.9235    0.4101 N   0  0  0  0  0  0  0  0  0  0  0  0
    3.0486   -2.1281    0.3432 O   0  0  0  0  0  0  0  0  0  0  0  0
    3.5855   -0.0231    0.6505 O   0  0  0  0  0  0  0  0  0  0  0  0
    0.4129   -1.5212   -0.0851 C   0  0  0  0  0  0  0  0  0  0  0  0
   -0.9167   -1.1297   -0.2856 C   0  0  0  0  0  0  0  0  0  0  0  0
   -1.9396   -2.1471   -0.5655 N   0  0  0  0  0  0  0  0  0  0  0  0
   -3.1044   -1.7614   -0.7348 O   0  0  0  0  0  0  0  0  0  0  0  0
   -1.5743   -3.3293   -0.6151 O   0  0  0  0  0  0  0  0  0  0  0  0
   -1.2872    0.2234   -0.2195 C   0  0  0  0  0  0  0  0  0  0  0  0
    0.1039    3.3055   -0.1631 H   0  0  0  0  0  0  0  0  0  0  0  0
   -1.5693    2.8708   -0.5097 H   0  0  0  0  0  0  0  0  0  0  0  0
   -0.9944    2.8892    1.1762 H   0  0  0  0  0  0  0  0  0  0  0  0
    1.7563    1.5819    0.4763 H   0  0  0  0  0  0  0  0  0  0  0  0
    0.6964   -2.5713   -0.1367 H   0  0  0  0  0  0  0  0  0  0  0  0
   -2.3250    0.5214   -0.3692 H   0  0  0  0  0  0  0  0  0  0  0  0
  1  2  1  0
  2  3  2  0
  3  4  1  0
  4  5  1  0
  5  6  2  0
  5  7  1  0
  4  8  2  0
  8  9  1  0
  9 10  1  0
 10 11  2  0
 10 12  1  0
  9 13  2  0
 13  2  1  0
  1 14  1  0
  1 15  1  0
  1 16  1  0
  3 17  1  0
  8 18  1  0
 13 19  1  0
M  CHG  4   5   1   7  -1  10   1  12  -1
M  END
$$$$
