
     RDKit          3D

 17 17  0  0  0  0  0  0  0  0999 V2000
    3.1679    0.0336   -1.1192 O   0  0  0  0  0  0  0  0  0  0  0  0
    2.4170   -0.2448   -0.2061 C   0  0  0  0  0  0  0  0  0  0  0  0
    2.8366   -0.7773    0.9505 O   0  0  0  0  0  0  0  0  0  0  0  0
    0.9808    0.0651   -0.1587 C   0  0  0  0  0  0  0  0  0  0  0  0
    0.6241    1.3979   -0.4289 C   0  0  0  0  0  0  0  0  0  0  0  0
   -0.7150    1.7809   -0.3986 C   0  0  0  0  0  0  0  0  0  0  0  0
   -1.1445    3.4131   -0.7191 Cl  0  0  0  0  0  0  0  0  0  0  0  0
   -1.7054    0.8511   -0.1077 C   0  0  0  0  0  0  0  0  0  0  0  0
   -1.3279   -0.4751    0.1427 C   0  0  0  0  0  0  0  0  0  0  0  0
   -2.3844   -1.4140    0.4313 N   0  0  0  0  0  0  0  0  0  0  0  0
   -2.5416   -1.7323    1.6156 O   0  0  0  0  0  0  0  0  0  0  0  0
   -3.0742   -1.7851   -0.5257 O   0  0  0  0  0  0  0  0  0  0  0  0
    0.0035   -0.9012    0.1137 C   0  0  0  0  0  0  0  0  0  0  0  0
    0.4185   -2.5693    0.3203 Cl  0  0  0  0  0  0  0  0  0  0  0  0
    3.7999   -0.9208    0.8323 H   0  0  0  0  0  0  0  0  0  0  0  0
    1.3968    2.1306   -0.6591 H   0  0  0  0  0  0  0  0  0  0  0  0
   -2.7522    1.1474   -0.0833 H   0  0  0  0  0  0  0  0  0  0  0  0
  1  2  2  0
  2  3  1  0
  2  4  1  0
  4  5  1  0
  5  6  2  0
  6  7  1  0
  6  8  1  0
  8  9  2  0
  9 10  1  0
 10 11  2  0
 10 12  1  0
  9 13  1  0
 13 14  1  0
 13  4  2  0
  3 15  1  0
  5 16  1  0
  8 17  1  0
M  CHG  2  10   1  12  -1
M  END
$$$$
