
     RDKit          3D

 72 74  0  0  0  0  0  0  0  0999 V2000
    9.8040   -2.9877   -0.7255 C   0  0  0  0  0  0  0  0  0  0  0  0
    8.4440   -2.3138   -0.8259 C   0  0  0  0  0  0  0  0  0  0  0  0
    8.3660   -1.0806    0.0750 C   0  0  0  0  0  0  0  0  0  0  0  0
    7.0648   -0.2896   -0.0861 C   0  0  0  0  0  0  0  0  0  0  0  0
    5.8218   -1.0642    0.3579 C   0  0  0  0  0  0  0  0  0  0  0  0
    4.5691   -0.1861    0.2914 C   0  0  0  0  0  0  0  0  0  0  0  0
    3.3225   -0.9674    0.7120 C   0  0  0  0  0  0  0  0  0  0  0  0
    2.0569   -0.1110    0.7576 C   0  0  0  0  0  0  0  0  0  0  0  0
    1.6410    0.4375   -0.6052 C   0  0  0  0  0  0  0  0  0  0  0  0
    0.3424    1.0507   -0.5134 O   0  0  0  0  0  0  0  0  0  0  0  0
    0.3213    2.3344   -0.0822 C   0  0  0  0  0  0  0  0  0  0  0  0
    1.2991    3.0030    0.2159 O   0  0  0  0  0  0  0  0  0  0  0  0
   -1.0719    2.8276   -0.0362 C   0  0  0  0  0  0  0  0  0  0  0  0
   -1.2499    4.1563    0.0840 C   0  0  0  0  0  0  0  0  0  0  0  0
   -2.4971    4.7252    0.0823 N   0  0  0  0  0  0  0  0  0  0  0  0
   -3.6321    3.9810   -0.1171 C   0  0  0  0  0  0  0  0  0  0  0  0
   -3.6025    2.6412   -0.2580 C   0  0  0  0  0  0  0  0  0  0  0  0
   -4.9200    1.9752   -0.4335 C   0  0  0  0  0  0  0  0  0  0  0  0
   -5.9411    2.4624    0.0442 O   0  0  0  0  0  0  0  0  0  0  0  0
   -4.9176    0.8032   -1.1448 N   0  0  0  0  0  0  0  0  0  0  0  0
   -6.1163    0.0005   -1.2607 C   0  0  0  0  0  0  0  0  0  0  0  0
   -6.3503   -0.8849   -0.0345 C   0  0  0  0  0  0  0  0  0  0  0  0
   -7.0902   -2.1207   -0.5494 C   0  0  0  0  0  0  0  0  0  0  0  0
   -7.1728   -1.9694   -2.0654 C   0  0  0  0  0  0  0  0  0  0  0  0
   -6.0602   -0.9942   -2.4135 C   0  0  0  0  0  0  0  0  0  0  0  0
   -2.2739    1.8795   -0.1630 C   0  0  0  0  0  0  0  0  0  0  0  0
   -2.3037    0.8721    0.9982 C   0  0  0  0  0  0  0  0  0  0  0  0
   -2.5281    1.3578    2.3056 C   0  0  0  0  0  0  0  0  0  0  0  0
   -2.5392    0.5042    3.4130 C   0  0  0  0  0  0  0  0  0  0  0  0
   -2.3198   -0.8599    3.2512 C   0  0  0  0  0  0  0  0  0  0  0  0
   -2.0908   -1.3761    1.9792 C   0  0  0  0  0  0  0  0  0  0  0  0
   -2.0858   -0.5175    0.8655 C   0  0  0  0  0  0  0  0  0  0  0  0
   -1.8487   -1.1478   -0.4299 N   0  0  0  0  0  0  0  0  0  0  0  0
   -2.6217   -0.8603   -1.3547 O   0  0  0  0  0  0  0  0  0  0  0  0
   -0.9118   -1.9539   -0.5102 O   0  0  0  0  0  0  0  0  0  0  0  0
    9.8373   -3.8725   -1.3692 H   0  0  0  0  0  0  0  0  0  0  0  0
   10.0092   -3.3065    0.3017 H   0  0  0  0  0  0  0  0  0  0  0  0
   10.6025   -2.3083   -1.0407 H   0  0  0  0  0  0  0  0  0  0  0  0
    8.2609   -2.0287   -1.8685 H   0  0  0  0  0  0  0  0  0  0  0  0
    7.6730   -3.0395   -0.5445 H   0  0  0  0  0  0  0  0  0  0  0  0
    9.2035   -0.4113   -0.1592 H   0  0  0  0  0  0  0  0  0  0  0  0
    8.4859   -1.3802    1.1234 H   0  0  0  0  0  0  0  0  0  0  0  0
    6.9517    0.0220   -1.1319 H   0  0  0  0  0  0  0  0  0  0  0  0
    7.1471    0.6280    0.5100 H   0  0  0  0  0  0  0  0  0  0  0  0
    5.6777   -1.9403   -0.2839 H   0  0  0  0  0  0  0  0  0  0  0  0
    5.9612   -1.4287    1.3826 H   0  0  0  0  0  0  0  0  0  0  0  0
    4.4503    0.1898   -0.7311 H   0  0  0  0  0  0  0  0  0  0  0  0
    4.6952    0.6843    0.9465 H   0  0  0  0  0  0  0  0  0  0  0  0
    3.4849   -1.3939    1.7095 H   0  0  0  0  0  0  0  0  0  0  0  0
    3.1677   -1.8123    0.0300 H   0  0  0  0  0  0  0  0  0  0  0  0
    1.2354   -0.7137    1.1640 H   0  0  0  0  0  0  0  0  0  0  0  0
    2.1911    0.7148    1.4667 H   0  0  0  0  0  0  0  0  0  0  0  0
    1.5510   -0.3801   -1.3282 H   0  0  0  0  0  0  0  0  0  0  0  0
    2.3705    1.1477   -1.0103 H   0  0  0  0  0  0  0  0  0  0  0  0
   -0.4289    4.8639    0.1724 H   0  0  0  0  0  0  0  0  0  0  0  0
   -2.5772    5.7383    0.1126 H   0  0  0  0  0  0  0  0  0  0  0  0
   -4.5523    4.5604   -0.1495 H   0  0  0  0  0  0  0  0  0  0  0  0
   -4.0520    0.3895   -1.4764 H   0  0  0  0  0  0  0  0  0  0  0  0
   -6.9782    0.6669   -1.3944 H   0  0  0  0  0  0  0  0  0  0  0  0
   -5.4014   -1.1900    0.4239 H   0  0  0  0  0  0  0  0  0  0  0  0
   -6.9250   -0.3600    0.7360 H   0  0  0  0  0  0  0  0  0  0  0  0
   -8.0883   -2.2089   -0.1076 H   0  0  0  0  0  0  0  0  0  0  0  0
   -6.5327   -3.0263   -0.2830 H   0  0  0  0  0  0  0  0  0  0  0  0
   -8.1445   -1.5422   -2.3427 H   0  0  0  0  0  0  0  0  0  0  0  0
   -7.0666   -2.9265   -2.5845 H   0  0  0  0  0  0  0  0  0  0  0  0
   -5.0974   -1.5172   -2.4455 H   0  0  0  0  0  0  0  0  0  0  0  0
   -6.2149   -0.5159   -3.3851 H   0  0  0  0  0  0  0  0  0  0  0  0
   -2.1399    1.3859   -1.1286 H   0  0  0  0  0  0  0  0  0  0  0  0
   -2.6986    2.4218    2.4766 H   0  0  0  0  0  0  0  0  0  0  0  0
   -2.7193    0.9118    4.4062 H   0  0  0  0  0  0  0  0  0  0  0  0
   -2.3273   -1.5190    4.1165 H   0  0  0  0  0  0  0  0  0  0  0  0
   -1.9190   -2.4449    1.8627 H   0  0  0  0  0  0  0  0  0  0  0  0
  1  2  1  0
  2  3  1  0
  3  4  1  0
  4  5  1  0
  5  6  1  0
  6  7  1  0
  7  8  1  0
  8  9  1  0
  9 10  1  0
 10 11  1  0
 11 12  2  0
 11 13  1  0
 13 14  2  0
 14 15  1  0
 15 16  1  0
 16 17  2  0
 17 18  1  0
 18 19  2  0
 18 20  1  0
 20 21  1  0
 21 22  1  0
 22 23  1  0
 23 24  1  0
 24 25  1  0
 17 26  1  0
 26 27  1  0
 27 28  2  0
 28 29  1  0
 29 30  2  0
 30 31  1  0
 31 32  2  0
 32 33  1  0
 33 34  2  0
 33 35  1  0
 26 13  1  0
 32 27  1  0
 25 21  1  0
  1 36  1  0
  1 37  1  0
  1 38  1  0
  2 39  1  0
  2 40  1  0
  3 41  1  0
  3 42  1  0
  4 43  1  0
  4 44  1  0
  5 45  1  0
  5 46  1  0
  6 47  1  0
  6 48  1  0
  7 49  1  0
  7 50  1  0
  8 51  1  0
  8 52  1  0
  9 53  1  0
  9 54  1  0
 14 55  1  0
 15 56  1  0
 16 57  1  0
 20 58  1  0
 21 59  1  0
 22 60  1  0
 22 61  1  0
 23 62  1  0
 23 63  1  0
 24 64  1  0
 24 65  1  0
 25 66  1  0
 25 67  1  0
 26 68  1  0
 28 69  1  0
 29 70  1  0
 30 71  1  0
 31 72  1  0
M  CHG  2  33   1  35  -1
M  END
$$$$
