
     RDKit          3D

 29 29  0  0  0  0  0  0  0  0999 V2000
   -0.8747    3.3584    0.1580 C   0  0  0  0  0  0  0  0  0  0  0  0
   -0.4529    2.2211   -0.5863 O   0  0  0  0  0  0  0  0  0  0  0  0
   -1.1797    1.0732   -0.4103 C   0  0  0  0  0  0  0  0  0  0  0  0
   -2.5307    1.0639   -0.0386 C   0  0  0  0  0  0  0  0  0  0  0  0
   -3.2224   -0.1428    0.1013 C   0  0  0  0  0  0  0  0  0  0  0  0
   -2.5590   -1.3491   -0.1405 C   0  0  0  0  0  0  0  0  0  0  0  0
   -3.2787   -2.6200    0.0083 N   0  0  0  0  0  0  0  0  0  0  0  0
   -2.6479   -3.6671   -0.1976 O   0  0  0  0  0  0  0  0  0  0  0  0
   -4.4746   -2.5720    0.3296 O   0  0  0  0  0  0  0  0  0  0  0  0
   -1.2131   -1.3542   -0.5266 C   0  0  0  0  0  0  0  0  0  0  0  0
   -0.5134   -0.1406   -0.6715 C   0  0  0  0  0  0  0  0  0  0  0  0
    0.9498   -0.1808   -1.0594 C   0  0  0  0  0  0  0  0  0  0  0  0
    1.7868   -0.4874    0.1009 N   0  0  0  0  0  0  0  0  0  0  0  0
    3.2103   -0.4811   -0.2510 C   0  0  0  0  0  0  0  0  0  0  0  0
    4.1194   -0.8130    0.9386 C   0  0  0  0  0  0  0  0  0  0  0  0
    4.0722    0.4466    2.1969 Cl  0  0  0  0  0  0  0  0  0  0  0  0
   -1.7655    3.8069   -0.2928 H   0  0  0  0  0  0  0  0  0  0  0  0
   -0.0717    4.1006    0.1165 H   0  0  0  0  0  0  0  0  0  0  0  0
   -1.0474    3.1115    1.2112 H   0  0  0  0  0  0  0  0  0  0  0  0
   -3.0746    1.9874    0.1366 H   0  0  0  0  0  0  0  0  0  0  0  0
   -4.2701   -0.1213    0.3940 H   0  0  0  0  0  0  0  0  0  0  0  0
   -0.6949   -2.2927   -0.7154 H   0  0  0  0  0  0  0  0  0  0  0  0
    1.0840   -0.9427   -1.8384 H   0  0  0  0  0  0  0  0  0  0  0  0
    1.2505    0.7713   -1.5115 H   0  0  0  0  0  0  0  0  0  0  0  0
    1.5206   -1.3881    0.4926 H   0  0  0  0  0  0  0  0  0  0  0  0
    3.4929    0.4979   -0.6569 H   0  0  0  0  0  0  0  0  0  0  0  0
    3.3925   -1.2274   -1.0340 H   0  0  0  0  0  0  0  0  0  0  0  0
    5.1576   -0.8952    0.6028 H   0  0  0  0  0  0  0  0  0  0  0  0
    3.8348   -1.7632    1.4018 H   0  0  0  0  0  0  0  0  0  0  0  0
  1  2  1  0
  2  3  1  0
  3  4  1  0
  4  5  2  0
  5  6  1  0
  6  7  1  0
  7  8  2  0
  7  9  1  0
  6 10  2  0
 10 11  1  0
 11 12  1  0
 12 13  1  0
 13 14  1  0
 14 15  1  0
 15 16  1  0
 11  3  2  0
  1 17  1  0
  1 18  1  0
  1 19  1  0
  4 20  1  0
  5 21  1  0
 10 22  1  0
 12 23  1  0
 12 24  1  0
 13 25  1  0
 14 26  1  0
 14 27  1  0
 15 28  1  0
 15 29  1  0
M  CHG  2   7   1   9  -1
M  END
$$$$
