
     RDKit          3D

 17 17  0  0  0  0  0  0  0  0999 V2000
   -2.7916   -1.9282    0.4349 O   0  0  0  0  0  0  0  0  0  0  0  0
   -2.5256   -1.0323   -0.3762 N   0  0  0  0  0  0  0  0  0  0  0  0
   -3.1450   -0.7844   -1.4178 O   0  0  0  0  0  0  0  0  0  0  0  0
   -1.3465   -0.2436   -0.1078 C   0  0  0  0  0  0  0  0  0  0  0  0
   -0.0977   -0.8701   -0.2386 C   0  0  0  0  0  0  0  0  0  0  0  0
    1.0733   -0.1380    0.0105 C   0  0  0  0  0  0  0  0  0  0  0  0
    2.4338   -0.7797   -0.1478 C   0  0  0  0  0  0  0  0  0  0  0  0
    2.4188   -2.1174    0.1004 F   0  0  0  0  0  0  0  0  0  0  0  0
    2.9239   -0.6337   -1.4075 F   0  0  0  0  0  0  0  0  0  0  0  0
    3.3695   -0.2525    0.6876 F   0  0  0  0  0  0  0  0  0  0  0  0
    0.9593    1.2151    0.3739 C   0  0  0  0  0  0  0  0  0  0  0  0
   -0.2969    1.8221    0.5062 C   0  0  0  0  0  0  0  0  0  0  0  0
   -1.4642    1.0929    0.2678 C   0  0  0  0  0  0  0  0  0  0  0  0
   -2.9765    1.8924    0.4824 Cl  0  0  0  0  0  0  0  0  0  0  0  0
   -0.0369   -1.9188   -0.5307 H   0  0  0  0  0  0  0  0  0  0  0  0
    1.8560    1.8070    0.5630 H   0  0  0  0  0  0  0  0  0  0  0  0
   -0.3537    2.8692    0.7997 H   0  0  0  0  0  0  0  0  0  0  0  0
  1  2  2  0
  2  3  1  0
  2  4  1  0
  4  5  1  0
  5  6  2  0
  6  7  1  0
  7  8  1  0
  7  9  1  0
  7 10  1  0
  6 11  1  0
 11 12  2  0
 12 13  1  0
 13 14  1  0
 13  4  2  0
  5 15  1  0
 11 16  1  0
 12 17  1  0
M  CHG  2   2   1   3  -1
M  END
$$$$
