
     RDKit          3D

 28 29  0  0  0  0  0  0  0  0999 V2000
    2.8670   -1.6606    0.0211 C   0  0  0  0  0  0  0  0  0  0  0  0
    2.7251   -0.2220   -0.0401 N   0  0  0  0  0  0  0  0  0  0  0  0
    3.7425    0.7021   -0.0656 C   0  0  0  0  0  0  0  0  0  0  0  0
    5.1225    0.4175    0.1112 N   0  0  0  0  0  0  0  0  0  0  0  0
    5.9190    1.2621   -0.3115 O   0  0  0  0  0  0  0  0  0  0  0  0
    5.4196   -0.6368    0.6839 O   0  0  0  0  0  0  0  0  0  0  0  0
    3.1584    1.9183   -0.2926 C   0  0  0  0  0  0  0  0  0  0  0  0
    1.7988    1.7776   -0.3446 N   0  0  0  0  0  0  0  0  0  0  0  0
    1.5386    0.4949   -0.1476 C   0  0  0  0  0  0  0  0  0  0  0  0
    0.2694   -0.1385   -0.0410 C   0  0  0  0  0  0  0  0  0  0  0  0
   -0.8505    0.5727   -0.2572 C   0  0  0  0  0  0  0  0  0  0  0  0
   -2.2192    0.0550   -0.1526 C   0  0  0  0  0  0  0  0  0  0  0  0
   -2.5607   -1.2376   -0.4883 C   0  0  0  0  0  0  0  0  0  0  0  0
   -3.8901   -1.5543   -0.3540 C   0  0  0  0  0  0  0  0  0  0  0  0
   -4.8215   -0.6818    0.0659 N   0  0  0  0  0  0  0  0  0  0  0  0
   -4.3981    0.5559    0.3311 C   0  0  0  0  0  0  0  0  0  0  0  0
   -5.3342    1.4701    0.7647 N   0  0  0  0  0  0  0  0  0  0  0  0
   -3.1298    0.9619    0.2501 N   0  0  0  0  0  0  0  0  0  0  0  0
    2.9562   -1.9530    1.0698 H   0  0  0  0  0  0  0  0  0  0  0  0
    2.0043   -2.1465   -0.4386 H   0  0  0  0  0  0  0  0  0  0  0  0
    3.7464   -1.9659   -0.5512 H   0  0  0  0  0  0  0  0  0  0  0  0
    3.6327    2.8858   -0.4017 H   0  0  0  0  0  0  0  0  0  0  0  0
    0.2010   -1.1788    0.2527 H   0  0  0  0  0  0  0  0  0  0  0  0
   -0.7939    1.6340   -0.4977 H   0  0  0  0  0  0  0  0  0  0  0  0
   -1.8473   -1.9641   -0.8486 H   0  0  0  0  0  0  0  0  0  0  0  0
   -4.2597   -2.5474   -0.5914 H   0  0  0  0  0  0  0  0  0  0  0  0
   -4.8809    2.1912    1.3080 H   0  0  0  0  0  0  0  0  0  0  0  0
   -6.1157    0.9883    1.1849 H   0  0  0  0  0  0  0  0  0  0  0  0
  1  2  1  0
  2  3  1  0
  3  4  1  0
  4  5  2  0
  4  6  1  0
  3  7  2  0
  7  8  1  0
  8  9  2  0
  9 10  1  0
 10 11  2  0
 11 12  1  0
 12 13  1  0
 13 14  2  0
 14 15  1  0
 15 16  2  0
 16 17  1  0
 16 18  1  0
  9  2  1  0
 18 12  2  0
  1 19  1  0
  1 20  1  0
  1 21  1  0
  7 22  1  0
 10 23  1  0
 11 24  1  0
 13 25  1  0
 14 26  1  0
 17 27  1  0
 17 28  1  0
M  CHG  2   4   1   6  -1
M  END
$$$$
