
     RDKit          3D

 34 35  0  0  0  0  0  0  0  0999 V2000
   -0.6043   -0.0426   -2.3485 C   0  0  0  0  0  0  0  0  0  0  0  0
   -0.5578   -0.3437   -0.9020 N   0  0  0  0  0  0  0  0  0  0  0  0
   -1.7885   -0.2407   -0.1831 C   0  0  0  0  0  0  0  0  0  0  0  0
   -2.9098    0.4094   -0.7463 C   0  0  0  0  0  0  0  0  0  0  0  0
   -4.1200    0.5470   -0.0550 C   0  0  0  0  0  0  0  0  0  0  0  0
   -4.2480    0.0288    1.2241 C   0  0  0  0  0  0  0  0  0  0  0  0
   -5.7335    0.1953    2.0731 Cl  0  0  0  0  0  0  0  0  0  0  0  0
   -3.1801   -0.6311    1.8152 C   0  0  0  0  0  0  0  0  0  0  0  0
   -1.9657   -0.7706    1.1228 C   0  0  0  0  0  0  0  0  0  0  0  0
   -0.6357   -1.7748    2.0520 Br  0  0  0  0  0  0  0  0  0  0  0  0
    0.7249   -0.0394   -0.3596 C   0  0  0  0  0  0  0  0  0  0  0  0
    1.0059    1.1629    0.3351 C   0  0  0  0  0  0  0  0  0  0  0  0
    0.0071    2.2092    0.4425 N   0  0  0  0  0  0  0  0  0  0  0  0
   -0.4180    2.4624    1.5768 O   0  0  0  0  0  0  0  0  0  0  0  0
   -0.2972    2.8054   -0.5993 O   0  0  0  0  0  0  0  0  0  0  0  0
    2.2539    1.4428    0.9095 C   0  0  0  0  0  0  0  0  0  0  0  0
    3.2710    0.4998    0.7815 C   0  0  0  0  0  0  0  0  0  0  0  0
    4.5937    0.7699    1.3633 N   0  0  0  0  0  0  0  0  0  0  0  0
    5.4639   -0.1012    1.2375 O   0  0  0  0  0  0  0  0  0  0  0  0
    4.7550    1.8554    1.9360 O   0  0  0  0  0  0  0  0  0  0  0  0
    3.0425   -0.6998    0.0933 C   0  0  0  0  0  0  0  0  0  0  0  0
    1.7758   -0.9878   -0.4705 C   0  0  0  0  0  0  0  0  0  0  0  0
    1.5958   -2.3192   -1.1773 C   0  0  0  0  0  0  0  0  0  0  0  0
    2.5563   -3.2262   -0.8344 F   0  0  0  0  0  0  0  0  0  0  0  0
    1.6907   -2.1916   -2.5307 F   0  0  0  0  0  0  0  0  0  0  0  0
    0.4129   -2.9415   -0.9355 F   0  0  0  0  0  0  0  0  0  0  0  0
   -0.7810    1.0222   -2.5365 H   0  0  0  0  0  0  0  0  0  0  0  0
    0.3320   -0.3004   -2.8548 H   0  0  0  0  0  0  0  0  0  0  0  0
   -1.3871   -0.6322   -2.8400 H   0  0  0  0  0  0  0  0  0  0  0  0
   -2.8691    0.8608   -1.7340 H   0  0  0  0  0  0  0  0  0  0  0  0
   -4.9511    1.0680   -0.5243 H   0  0  0  0  0  0  0  0  0  0  0  0
   -3.2954   -1.0449    2.8142 H   0  0  0  0  0  0  0  0  0  0  0  0
    2.4162    2.3833    1.4348 H   0  0  0  0  0  0  0  0  0  0  0  0
    3.8447   -1.4350   -0.0022 H   0  0  0  0  0  0  0  0  0  0  0  0
  1  2  1  0
  2  3  1  0
  3  4  1  0
  4  5  2  0
  5  6  1  0
  6  7  1  0
  6  8  2  0
  8  9  1  0
  9 10  1  0
  2 11  1  0
 11 12  2  0
 12 13  1  0
 13 14  2  0
 13 15  1  0
 12 16  1  0
 16 17  2  0
 17 18  1  0
 18 19  2  0
 18 20  1  0
 17 21  1  0
 21 22  2  0
 22 23  1  0
 23 24  1  0
 23 25  1  0
 23 26  1  0
  9  3  2  0
 22 11  1  0
  1 27  1  0
  1 28  1  0
  1 29  1  0
  4 30  1  0
  5 31  1  0
  8 32  1  0
 16 33  1  0
 21 34  1  0
M  CHG  4  13   1  15  -1  18   1  20  -1
M  END
$$$$
