
     RDKit          3D

 14 14  0  0  0  0  0  0  0  0999 V2000
   -2.9083    1.2427   -0.0876 O   0  0  0  0  0  0  0  0  0  0  0  0
   -2.3876    0.1284    0.0625 N   0  0  0  0  0  0  0  0  0  0  0  0
   -3.0162   -0.9241    0.2426 O   0  0  0  0  0  0  0  0  0  0  0  0
   -0.9212    0.0495    0.0241 C   0  0  0  0  0  0  0  0  0  0  0  0
   -0.2870   -1.1903    0.1892 C   0  0  0  0  0  0  0  0  0  0  0  0
    1.1088   -1.2599    0.1519 C   0  0  0  0  0  0  0  0  0  0  0  0
    1.8590   -0.1000   -0.0486 C   0  0  0  0  0  0  0  0  0  0  0  0
    3.5758   -0.1923   -0.0935 Cl  0  0  0  0  0  0  0  0  0  0  0  0
    1.2280    1.1343   -0.2130 C   0  0  0  0  0  0  0  0  0  0  0  0
   -0.1673    1.2148   -0.1773 C   0  0  0  0  0  0  0  0  0  0  0  0
   -0.8592   -2.1028    0.3464 H   0  0  0  0  0  0  0  0  0  0  0  0
    1.6046   -2.2196    0.2795 H   0  0  0  0  0  0  0  0  0  0  0  0
    1.8165    2.0357   -0.3691 H   0  0  0  0  0  0  0  0  0  0  0  0
   -0.6458    2.1837   -0.3070 H   0  0  0  0  0  0  0  0  0  0  0  0
  1  2  2  0
  2  3  1  0
  2  4  1  0
  4  5  1  0
  5  6  2  0
  6  7  1  0
  7  8  1  0
  7  9  2  0
  9 10  1  0
 10  4  2  0
  5 11  1  0
  6 12  1  0
  9 13  1  0
 10 14  1  0
M  CHG  2   2   1   3  -1
M  END
$$$$
