
     RDKit          3D

 35 37  0  0  0  0  0  0  0  0999 V2000
   -3.1822   -1.8872    1.0403 C   0  0  0  0  0  0  0  0  0  0  0  0
   -2.2215   -1.3981    0.0598 N   0  0  0  0  0  0  0  0  0  0  0  0
   -1.9393   -2.2470   -1.0177 C   0  0  0  0  0  0  0  0  0  0  0  0
   -2.4134   -3.3836   -1.1045 O   0  0  0  0  0  0  0  0  0  0  0  0
   -1.0809   -1.6826   -2.1417 C   0  0  0  0  0  0  0  0  0  0  0  0
    0.2916   -1.5313   -1.6688 N   0  0  0  0  0  0  0  0  0  0  0  0
    0.5353   -0.6085   -0.7999 C   0  0  0  0  0  0  0  0  0  0  0  0
    1.9345   -0.5183   -0.2788 C   0  0  0  0  0  0  0  0  0  0  0  0
    2.9997   -0.8263   -1.1358 C   0  0  0  0  0  0  0  0  0  0  0  0
    4.3166   -0.7554   -0.6740 C   0  0  0  0  0  0  0  0  0  0  0  0
    4.5768   -0.3880    0.6466 C   0  0  0  0  0  0  0  0  0  0  0  0
    3.5201   -0.0989    1.5094 C   0  0  0  0  0  0  0  0  0  0  0  0
    2.2076   -0.1706    1.0468 C   0  0  0  0  0  0  0  0  0  0  0  0
    1.2172    0.0908    1.9129 F   0  0  0  0  0  0  0  0  0  0  0  0
   -0.4871    0.3629   -0.3111 C   0  0  0  0  0  0  0  0  0  0  0  0
   -0.1117    1.7197   -0.2727 C   0  0  0  0  0  0  0  0  0  0  0  0
   -0.9734    2.6644    0.2905 C   0  0  0  0  0  0  0  0  0  0  0  0
   -0.5733    4.0757    0.3485 N   0  0  0  0  0  0  0  0  0  0  0  0
   -1.3737    4.8807    0.8442 O   0  0  0  0  0  0  0  0  0  0  0  0
    0.5401    4.3760   -0.1039 O   0  0  0  0  0  0  0  0  0  0  0  0
   -2.2077    2.2701    0.8081 C   0  0  0  0  0  0  0  0  0  0  0  0
   -2.5870    0.9247    0.7385 C   0  0  0  0  0  0  0  0  0  0  0  0
   -1.7527   -0.0500    0.1553 C   0  0  0  0  0  0  0  0  0  0  0  0
   -3.1351   -2.9776    1.1239 H   0  0  0  0  0  0  0  0  0  0  0  0
   -2.9655   -1.4734    2.0303 H   0  0  0  0  0  0  0  0  0  0  0  0
   -4.1916   -1.6105    0.7202 H   0  0  0  0  0  0  0  0  0  0  0  0
   -1.0853   -2.4038   -2.9666 H   0  0  0  0  0  0  0  0  0  0  0  0
   -1.5067   -0.7552   -2.5410 H   0  0  0  0  0  0  0  0  0  0  0  0
    2.8074   -1.1242   -2.1647 H   0  0  0  0  0  0  0  0  0  0  0  0
    5.1388   -0.9940   -1.3451 H   0  0  0  0  0  0  0  0  0  0  0  0
    5.6024   -0.3374    1.0050 H   0  0  0  0  0  0  0  0  0  0  0  0
    3.7106    0.1742    2.5430 H   0  0  0  0  0  0  0  0  0  0  0  0
    0.8554    2.0266   -0.6680 H   0  0  0  0  0  0  0  0  0  0  0  0
   -2.8916    2.9902    1.2548 H   0  0  0  0  0  0  0  0  0  0  0  0
   -3.5741    0.6657    1.1163 H   0  0  0  0  0  0  0  0  0  0  0  0
  1  2  1  0
  2  3  1  0
  3  4  2  0
  3  5  1  0
  5  6  1  0
  6  7  2  0
  7  8  1  0
  8  9  2  0
  9 10  1  0
 10 11  2  0
 11 12  1  0
 12 13  2  0
 13 14  1  0
  7 15  1  0
 15 16  1  0
 16 17  2  0
 17 18  1  0
 18 19  2  0
 18 20  1  0
 17 21  1  0
 21 22  2  0
 22 23  1  0
 23  2  1  0
 13  8  1  0
 23 15  2  0
  1 24  1  0
  1 25  1  0
  1 26  1  0
  5 27  1  0
  5 28  1  0
  9 29  1  0
 10 30  1  0
 11 31  1  0
 12 32  1  0
 16 33  1  0
 21 34  1  0
 22 35  1  0
M  CHG  2  18   1  20  -1
M  END
$$$$
