
     RDKit          3D

 35 35  0  0  0  0  0  0  0  0999 V2000
   -0.2556    2.8848    0.8358 C   0  0  0  0  0  0  0  0  0  0  0  0
   -0.4737    1.5608    1.3363 O   0  0  0  0  0  0  0  0  0  0  0  0
    0.2068    0.5971    0.6370 C   0  0  0  0  0  0  0  0  0  0  0  0
   -0.5314   -0.3199   -0.1496 C   0  0  0  0  0  0  0  0  0  0  0  0
   -2.0804   -0.3225   -0.2281 C   0  0  0  0  0  0  0  0  0  0  0  0
   -2.7161   -0.3553    1.1814 C   0  0  0  0  0  0  0  0  0  0  0  0
   -2.5762    0.9184   -0.9965 C   0  0  0  0  0  0  0  0  0  0  0  0
   -2.6589   -1.5568   -0.9721 C   0  0  0  0  0  0  0  0  0  0  0  0
    0.2199   -1.2603   -0.8867 C   0  0  0  0  0  0  0  0  0  0  0  0
    1.6247   -1.3302   -0.7939 C   0  0  0  0  0  0  0  0  0  0  0  0
    2.2900   -2.3179   -1.6378 N   0  0  0  0  0  0  0  0  0  0  0  0
    1.8973   -3.4882   -1.5504 O   0  0  0  0  0  0  0  0  0  0  0  0
    3.1825   -1.9082   -2.3907 O   0  0  0  0  0  0  0  0  0  0  0  0
    2.3603   -0.5019    0.0623 C   0  0  0  0  0  0  0  0  0  0  0  0
    3.8561   -0.6122    0.2004 C   0  0  0  0  0  0  0  0  0  0  0  0
    1.6117    0.4666    0.7579 C   0  0  0  0  0  0  0  0  0  0  0  0
    2.3077    1.3521    1.6696 N   0  0  0  0  0  0  0  0  0  0  0  0
    2.2705    1.0690    2.8731 O   0  0  0  0  0  0  0  0  0  0  0  0
    2.9148    2.3051    1.1623 O   0  0  0  0  0  0  0  0  0  0  0  0
    0.4566    3.4096    1.4780 H   0  0  0  0  0  0  0  0  0  0  0  0
    0.0884    2.8974   -0.2049 H   0  0  0  0  0  0  0  0  0  0  0  0
   -1.2055    3.4250    0.8902 H   0  0  0  0  0  0  0  0  0  0  0  0
   -2.5660    0.5715    1.7411 H   0  0  0  0  0  0  0  0  0  0  0  0
   -3.8019   -0.4978    1.1221 H   0  0  0  0  0  0  0  0  0  0  0  0
   -2.3057   -1.1775    1.7793 H   0  0  0  0  0  0  0  0  0  0  0  0
   -2.1050    0.9872   -1.9840 H   0  0  0  0  0  0  0  0  0  0  0  0
   -3.6617    0.8819   -1.1475 H   0  0  0  0  0  0  0  0  0  0  0  0
   -2.3672    1.8494   -0.4665 H   0  0  0  0  0  0  0  0  0  0  0  0
   -2.3358   -2.4953   -0.5064 H   0  0  0  0  0  0  0  0  0  0  0  0
   -2.3625   -1.5730   -2.0274 H   0  0  0  0  0  0  0  0  0  0  0  0
   -3.7558   -1.5502   -0.9587 H   0  0  0  0  0  0  0  0  0  0  0  0
   -0.2717   -1.9676   -1.5529 H   0  0  0  0  0  0  0  0  0  0  0  0
    4.1949   -1.6463    0.0802 H   0  0  0  0  0  0  0  0  0  0  0  0
    4.2000   -0.3114    1.1948 H   0  0  0  0  0  0  0  0  0  0  0  0
    4.3489    0.0165   -0.5475 H   0  0  0  0  0  0  0  0  0  0  0  0
  1  2  1  0
  2  3  1  0
  3  4  2  0
  4  5  1  0
  5  6  1  0
  5  7  1  0
  5  8  1  0
  4  9  1  0
  9 10  2  0
 10 11  1  0
 11 12  2  0
 11 13  1  0
 10 14  1  0
 14 15  1  0
 14 16  2  0
 16 17  1  0
 17 18  2  0
 17 19  1  0
 16  3  1  0
  1 20  1  0
  1 21  1  0
  1 22  1  0
  6 23  1  0
  6 24  1  0
  6 25  1  0
  7 26  1  0
  7 27  1  0
  7 28  1  0
  8 29  1  0
  8 30  1  0
  8 31  1  0
  9 32  1  0
 15 33  1  0
 15 34  1  0
 15 35  1  0
M  CHG  4  11   1  13  -1  17   1  19  -1
M  END
$$$$
