
     RDKit          3D

 64 66  0  0  0  0  0  0  0  0999 V2000
   -6.2594    0.8217    2.6942 C   0  0  0  0  0  0  0  0  0  0  0  0
   -5.2719   -0.1030    2.2392 O   0  0  0  0  0  0  0  0  0  0  0  0
   -3.9969    0.3144    2.4378 C   0  0  0  0  0  0  0  0  0  0  0  0
   -3.6544    1.3712    2.9469 O   0  0  0  0  0  0  0  0  0  0  0  0
   -3.0407   -0.6519    1.8574 C   0  0  0  0  0  0  0  0  0  0  0  0
   -3.0644   -1.9826    2.0965 C   0  0  0  0  0  0  0  0  0  0  0  0
   -4.0467   -2.6758    3.0052 C   0  0  0  0  0  0  0  0  0  0  0  0
   -2.1005   -2.7946    1.5146 N   0  0  0  0  0  0  0  0  0  0  0  0
   -0.9685   -2.3187    0.8663 C   0  0  0  0  0  0  0  0  0  0  0  0
    0.0463   -3.3613    0.4713 C   0  0  0  0  0  0  0  0  0  0  0  0
   -0.8483   -0.9933    0.6186 C   0  0  0  0  0  0  0  0  0  0  0  0
    0.3750   -0.3651    0.0642 C   0  0  0  0  0  0  0  0  0  0  0  0
    0.3688    0.5425   -0.7525 O   0  0  0  0  0  0  0  0  0  0  0  0
    1.4772   -0.8714    0.6739 O   0  0  0  0  0  0  0  0  0  0  0  0
    2.7354   -0.3150    0.2410 C   0  0  0  0  0  0  0  0  0  0  0  0
    3.0094    1.0122    0.9664 C   0  0  0  0  0  0  0  0  0  0  0  0
    4.3789    1.5520    0.8238 N   0  0  0  0  0  0  0  0  0  0  0  0
    4.5700    2.6341    1.7972 C   0  0  0  0  0  0  0  0  0  0  0  0
    4.6437    2.0697   -0.5356 C   0  0  0  0  0  0  0  0  0  0  0  0
    5.0479    1.0045   -1.5322 C   0  0  0  0  0  0  0  0  0  0  0  0
    6.0586    0.0802   -1.2267 C   0  0  0  0  0  0  0  0  0  0  0  0
    6.4476   -0.8824   -2.1593 C   0  0  0  0  0  0  0  0  0  0  0  0
    5.8383   -0.9263   -3.4115 C   0  0  0  0  0  0  0  0  0  0  0  0
    4.8421   -0.0064   -3.7334 C   0  0  0  0  0  0  0  0  0  0  0  0
    4.4525    0.9581   -2.8019 C   0  0  0  0  0  0  0  0  0  0  0  0
   -1.9781   -0.0248    0.9606 C   0  0  0  0  0  0  0  0  0  0  0  0
   -2.6376    0.5620   -0.2945 C   0  0  0  0  0  0  0  0  0  0  0  0
   -2.7067    1.9556   -0.4633 C   0  0  0  0  0  0  0  0  0  0  0  0
   -3.3126    2.5125   -1.5924 C   0  0  0  0  0  0  0  0  0  0  0  0
   -3.8649    1.6872   -2.5712 C   0  0  0  0  0  0  0  0  0  0  0  0
   -3.8092    0.2976   -2.4103 C   0  0  0  0  0  0  0  0  0  0  0  0
   -4.3948   -0.5759   -3.4351 N   0  0  0  0  0  0  0  0  0  0  0  0
   -4.9312   -0.0377   -4.4147 O   0  0  0  0  0  0  0  0  0  0  0  0
   -4.3242   -1.8016   -3.2612 O   0  0  0  0  0  0  0  0  0  0  0  0
   -3.2041   -0.2682   -1.2791 C   0  0  0  0  0  0  0  0  0  0  0  0
   -6.1653    0.9837    3.7728 H   0  0  0  0  0  0  0  0  0  0  0  0
   -6.1772    1.7683    2.1508 H   0  0  0  0  0  0  0  0  0  0  0  0
   -7.2442    0.3920    2.4927 H   0  0  0  0  0  0  0  0  0  0  0  0
   -4.5156   -1.9976    3.7236 H   0  0  0  0  0  0  0  0  0  0  0  0
   -3.5406   -3.4471    3.5971 H   0  0  0  0  0  0  0  0  0  0  0  0
   -4.8303   -3.1596    2.4133 H   0  0  0  0  0  0  0  0  0  0  0  0
   -2.1049   -3.7792    1.7727 H   0  0  0  0  0  0  0  0  0  0  0  0
    0.6837   -3.0373   -0.3569 H   0  0  0  0  0  0  0  0  0  0  0  0
    0.6776   -3.6196    1.3277 H   0  0  0  0  0  0  0  0  0  0  0  0
   -0.4570   -4.2742    0.1311 H   0  0  0  0  0  0  0  0  0  0  0  0
    2.7305   -0.2107   -0.8474 H   0  0  0  0  0  0  0  0  0  0  0  0
    3.5044   -1.0517    0.4995 H   0  0  0  0  0  0  0  0  0  0  0  0
    2.2630    1.7620    0.6726 H   0  0  0  0  0  0  0  0  0  0  0  0
    2.8163    0.8213    2.0315 H   0  0  0  0  0  0  0  0  0  0  0  0
    5.5965    3.0158    1.7550 H   0  0  0  0  0  0  0  0  0  0  0  0
    4.4228    2.2657    2.8186 H   0  0  0  0  0  0  0  0  0  0  0  0
    3.8811    3.4698    1.6270 H   0  0  0  0  0  0  0  0  0  0  0  0
    3.7843    2.6461   -0.9031 H   0  0  0  0  0  0  0  0  0  0  0  0
    5.4882    2.7726   -0.5119 H   0  0  0  0  0  0  0  0  0  0  0  0
    6.5419    0.1077   -0.2518 H   0  0  0  0  0  0  0  0  0  0  0  0
    7.2282   -1.5953   -1.9075 H   0  0  0  0  0  0  0  0  0  0  0  0
    6.1419   -1.6757   -4.1376 H   0  0  0  0  0  0  0  0  0  0  0  0
    4.3684   -0.0384   -4.7109 H   0  0  0  0  0  0  0  0  0  0  0  0
    3.6725    1.6674   -3.0707 H   0  0  0  0  0  0  0  0  0  0  0  0
   -1.5129    0.7916    1.5330 H   0  0  0  0  0  0  0  0  0  0  0  0
   -2.2821    2.6214    0.2875 H   0  0  0  0  0  0  0  0  0  0  0  0
   -3.3491    3.5935   -1.7076 H   0  0  0  0  0  0  0  0  0  0  0  0
   -4.3294    2.1382   -3.4453 H   0  0  0  0  0  0  0  0  0  0  0  0
   -3.1695   -1.3499   -1.1561 H   0  0  0  0  0  0  0  0  0  0  0  0
  1  2  1  0
  2  3  1  0
  3  4  2  0
  3  5  1  0
  5  6  2  0
  6  7  1  0
  6  8  1  0
  8  9  1  0
  9 10  1  0
  9 11  2  0
 11 12  1  0
 12 13  2  0
 12 14  1  0
 14 15  1  0
 15 16  1  0
 16 17  1  0
 17 18  1  0
 17 19  1  0
 19 20  1  0
 20 21  2  0
 21 22  1  0
 22 23  2  0
 23 24  1  0
 24 25  2  0
 11 26  1  0
 26 27  1  0
 27 28  2  0
 28 29  1  0
 29 30  2  0
 30 31  1  0
 31 32  1  0
 32 33  2  0
 32 34  1  0
 31 35  2  0
 26  5  1  0
 35 27  1  0
 25 20  1  0
  1 36  1  0
  1 37  1  0
  1 38  1  0
  7 39  1  0
  7 40  1  0
  7 41  1  0
  8 42  1  0
 10 43  1  0
 10 44  1  0
 10 45  1  0
 15 46  1  0
 15 47  1  0
 16 48  1  0
 16 49  1  0
 18 50  1  0
 18 51  1  0
 18 52  1  0
 19 53  1  0
 19 54  1  0
 21 55  1  0
 22 56  1  0
 23 57  1  0
 24 58  1  0
 25 59  1  0
 26 60  1  0
 28 61  1  0
 29 62  1  0
 30 63  1  0
 35 64  1  0
M  CHG  2  32   1  34  -1
M  END
$$$$
