
     RDKit          3D

 31 31  0  0  0  0  0  0  0  0999 V2000
   -4.9013   -0.8600   -0.4598 C   0  0  0  0  0  0  0  0  0  0  0  0
   -4.0864   -0.4405    0.7559 C   0  0  0  0  0  0  0  0  0  0  0  0
   -2.5931   -0.3716    0.4554 C   0  0  0  0  0  0  0  0  0  0  0  0
   -2.3568    0.6350   -0.5135 O   0  0  0  0  0  0  0  0  0  0  0  0
   -0.8778    0.8623   -1.1421 P   0  0  0  0  0  0  0  0  0  0  0  0
   -0.6581   -0.6091   -2.1471 C   0  0  0  0  0  0  0  0  0  0  0  0
   -0.7171    2.5733   -2.0457 S   0  0  0  0  0  0  0  0  0  0  0  0
    0.0686    0.6061    0.1416 O   0  0  0  0  0  0  0  0  0  0  0  0
    1.4313    0.5438    0.1820 C   0  0  0  0  0  0  0  0  0  0  0  0
    2.2774    0.7947   -0.8962 C   0  0  0  0  0  0  0  0  0  0  0  0
    3.6656    0.7049   -0.7347 C   0  0  0  0  0  0  0  0  0  0  0  0
    4.2009    0.3653    0.5143 C   0  0  0  0  0  0  0  0  0  0  0  0
    5.6564    0.2746    0.6860 N   0  0  0  0  0  0  0  0  0  0  0  0
    6.3683    0.4984   -0.3036 O   0  0  0  0  0  0  0  0  0  0  0  0
    6.0859   -0.0246    1.8095 O   0  0  0  0  0  0  0  0  0  0  0  0
    3.3557    0.1150    1.6010 C   0  0  0  0  0  0  0  0  0  0  0  0
    1.9725    0.2075    1.4273 C   0  0  0  0  0  0  0  0  0  0  0  0
   -4.7955   -0.1404   -1.2777 H   0  0  0  0  0  0  0  0  0  0  0  0
   -5.9629   -0.9190   -0.1995 H   0  0  0  0  0  0  0  0  0  0  0  0
   -4.5855   -1.8435   -0.8229 H   0  0  0  0  0  0  0  0  0  0  0  0
   -4.2625   -1.1508    1.5719 H   0  0  0  0  0  0  0  0  0  0  0  0
   -4.4391    0.5438    1.0876 H   0  0  0  0  0  0  0  0  0  0  0  0
   -2.2351   -1.3403    0.0952 H   0  0  0  0  0  0  0  0  0  0  0  0
   -2.0524   -0.1171    1.3725 H   0  0  0  0  0  0  0  0  0  0  0  0
    0.3079   -0.5968   -2.6587 H   0  0  0  0  0  0  0  0  0  0  0  0
   -0.7028   -1.5203   -1.5455 H   0  0  0  0  0  0  0  0  0  0  0  0
   -1.4409   -0.6641   -2.9091 H   0  0  0  0  0  0  0  0  0  0  0  0
    1.9017    1.0790   -1.8738 H   0  0  0  0  0  0  0  0  0  0  0  0
    4.3107    0.9108   -1.5876 H   0  0  0  0  0  0  0  0  0  0  0  0
    3.7513   -0.1419    2.5812 H   0  0  0  0  0  0  0  0  0  0  0  0
    1.3131    0.0254    2.2735 H   0  0  0  0  0  0  0  0  0  0  0  0
  1  2  1  0
  2  3  1  0
  3  4  1  0
  4  5  1  0
  5  6  1  0
  5  7  2  0
  5  8  1  0
  8  9  1  0
  9 10  1  0
 10 11  2  0
 11 12  1  0
 12 13  1  0
 13 14  2  0
 13 15  1  0
 12 16  2  0
 16 17  1  0
 17  9  2  0
  1 18  1  0
  1 19  1  0
  1 20  1  0
  2 21  1  0
  2 22  1  0
  3 23  1  0
  3 24  1  0
  6 25  1  0
  6 26  1  0
  6 27  1  0
 10 28  1  0
 11 29  1  0
 16 30  1  0
 17 31  1  0
M  CHG  2  13   1  15  -1
M  END
$$$$
