
     RDKit          3D

 30 31  0  0  0  0  0  0  0  0999 V2000
    4.6332   -0.3329    0.4502 C   0  0  0  0  0  0  0  0  0  0  0  0
    3.8361    0.7794   -0.2134 C   0  0  0  0  0  0  0  0  0  0  0  0
    2.3838    0.3984   -0.5034 C   0  0  0  0  0  0  0  0  0  0  0  0
    1.5573    0.1579    0.7616 C   0  0  0  0  0  0  0  0  0  0  0  0
    0.1649   -0.0984    0.4415 N   0  0  0  0  0  0  0  0  0  0  0  0
   -0.3312   -1.3333    0.1275 C   0  0  0  0  0  0  0  0  0  0  0  0
    0.2331   -2.4089    0.0915 O   0  0  0  0  0  0  0  0  0  0  0  0
   -1.7419   -1.1379   -0.2027 C   0  0  0  0  0  0  0  0  0  0  0  0
   -2.7028   -2.0608   -0.5828 C   0  0  0  0  0  0  0  0  0  0  0  0
   -3.9906   -1.5835   -0.8579 C   0  0  0  0  0  0  0  0  0  0  0  0
   -4.2868   -0.2116   -0.7456 C   0  0  0  0  0  0  0  0  0  0  0  0
   -3.2797    0.6819   -0.3546 C   0  0  0  0  0  0  0  0  0  0  0  0
   -3.5837    2.0802   -0.2150 N   0  0  0  0  0  0  0  0  0  0  0  0
   -3.7531    2.4992    0.9359 O   0  0  0  0  0  0  0  0  0  0  0  0
   -3.7189    2.7253   -1.2614 O   0  0  0  0  0  0  0  0  0  0  0  0
   -2.0154    0.2126   -0.0908 C   0  0  0  0  0  0  0  0  0  0  0  0
   -0.7770    0.8817    0.2889 C   0  0  0  0  0  0  0  0  0  0  0  0
   -0.6574    2.0850    0.3953 O   0  0  0  0  0  0  0  0  0  0  0  0
    4.5921   -1.2528   -0.1415 H   0  0  0  0  0  0  0  0  0  0  0  0
    4.2593   -0.5500    1.4550 H   0  0  0  0  0  0  0  0  0  0  0  0
    5.6831   -0.0374    0.5446 H   0  0  0  0  0  0  0  0  0  0  0  0
    4.3230    1.0392   -1.1610 H   0  0  0  0  0  0  0  0  0  0  0  0
    3.8682    1.6767    0.4155 H   0  0  0  0  0  0  0  0  0  0  0  0
    1.9245    1.2070   -1.0861 H   0  0  0  0  0  0  0  0  0  0  0  0
    2.3550   -0.4934   -1.1419 H   0  0  0  0  0  0  0  0  0  0  0  0
    1.6066    1.0368    1.4141 H   0  0  0  0  0  0  0  0  0  0  0  0
    1.9424   -0.7070    1.3115 H   0  0  0  0  0  0  0  0  0  0  0  0
   -2.4600   -3.1166   -0.6674 H   0  0  0  0  0  0  0  0  0  0  0  0
   -4.7708   -2.2807   -1.1615 H   0  0  0  0  0  0  0  0  0  0  0  0
   -5.2934    0.1440   -0.9605 H   0  0  0  0  0  0  0  0  0  0  0  0
  1  2  1  0
  2  3  1  0
  3  4  1  0
  4  5  1  0
  5  6  1  0
  6  7  2  0
  6  8  1  0
  8  9  1  0
  9 10  2  0
 10 11  1  0
 11 12  2  0
 12 13  1  0
 13 14  2  0
 13 15  1  0
 12 16  1  0
 16 17  1  0
 17 18  2  0
 17  5  1  0
 16  8  2  0
  1 19  1  0
  1 20  1  0
  1 21  1  0
  2 22  1  0
  2 23  1  0
  3 24  1  0
  3 25  1  0
  4 26  1  0
  4 27  1  0
  9 28  1  0
 10 29  1  0
 11 30  1  0
M  CHG  2  13   1  15  -1
M  END
$$$$
