
     RDKit          3D

 17 17  0  0  0  0  0  0  0  0999 V2000
   -2.7138    0.2231    0.1214 C   0  0  0  0  0  0  0  0  0  0  0  0
   -1.2203    0.0992    0.0288 C   0  0  0  0  0  0  0  0  0  0  0  0
   -0.4190    1.2472   -0.0415 C   0  0  0  0  0  0  0  0  0  0  0  0
    0.9727    1.1388   -0.0965 C   0  0  0  0  0  0  0  0  0  0  0  0
    1.5668   -0.1288   -0.0701 C   0  0  0  0  0  0  0  0  0  0  0  0
    3.0286   -0.2486   -0.1268 N   0  0  0  0  0  0  0  0  0  0  0  0
    3.6913    0.7965   -0.1992 O   0  0  0  0  0  0  0  0  0  0  0  0
    3.5162   -1.3880   -0.0990 O   0  0  0  0  0  0  0  0  0  0  0  0
    0.7785   -1.2830    0.0148 C   0  0  0  0  0  0  0  0  0  0  0  0
   -0.6123   -1.1633    0.0692 C   0  0  0  0  0  0  0  0  0  0  0  0
   -3.0655    1.1122   -0.4125 H   0  0  0  0  0  0  0  0  0  0  0  0
   -3.2063   -0.6436   -0.3320 H   0  0  0  0  0  0  0  0  0  0  0  0
   -3.0185    0.2957    1.1699 H   0  0  0  0  0  0  0  0  0  0  0  0
   -0.8765    2.2350   -0.0549 H   0  0  0  0  0  0  0  0  0  0  0  0
    1.5726    2.0445   -0.1562 H   0  0  0  0  0  0  0  0  0  0  0  0
    1.2264   -2.2741    0.0422 H   0  0  0  0  0  0  0  0  0  0  0  0
   -1.2210   -2.0629    0.1425 H   0  0  0  0  0  0  0  0  0  0  0  0
  1  2  1  0
  2  3  1  0
  3  4  2  0
  4  5  1  0
  5  6  1  0
  6  7  2  0
  6  8  1  0
  5  9  2  0
  9 10  1  0
 10  2  2  0
  1 11  1  0
  1 12  1  0
  1 13  1  0
  3 14  1  0
  4 15  1  0
  9 16  1  0
 10 17  1  0
M  CHG  2   6   1   8  -1
M  END
$$$$
