
     RDKit          3D

 26 26  0  0  0  0  0  0  0  0999 V2000
   -3.2619   -1.6668    0.0529 C   0  0  0  0  0  0  0  0  0  0  0  0
   -3.1024   -0.6884    1.0611 O   0  0  0  0  0  0  0  0  0  0  0  0
   -1.7982    0.2724    1.0265 P   0  0  0  0  0  0  0  0  0  0  0  0
   -1.5523    1.3528    2.6164 S   0  0  0  0  0  0  0  0  0  0  0  0
   -2.0087    1.0634   -0.3728 O   0  0  0  0  0  0  0  0  0  0  0  0
   -3.0820    1.9810   -0.4666 C   0  0  0  0  0  0  0  0  0  0  0  0
   -0.6232   -0.7706    0.6619 O   0  0  0  0  0  0  0  0  0  0  0  0
    0.6743   -0.4777    0.3422 C   0  0  0  0  0  0  0  0  0  0  0  0
    1.1316    0.8180    0.0939 C   0  0  0  0  0  0  0  0  0  0  0  0
    2.4747    1.0402   -0.2304 C   0  0  0  0  0  0  0  0  0  0  0  0
    3.3606   -0.0421   -0.3107 C   0  0  0  0  0  0  0  0  0  0  0  0
    4.7684    0.1926   -0.6548 N   0  0  0  0  0  0  0  0  0  0  0  0
    5.1171    1.3583   -0.8864 O   0  0  0  0  0  0  0  0  0  0  0  0
    5.5212   -0.7901   -0.6966 O   0  0  0  0  0  0  0  0  0  0  0  0
    2.9135   -1.3453   -0.0720 C   0  0  0  0  0  0  0  0  0  0  0  0
    1.5713   -1.5545    0.2510 C   0  0  0  0  0  0  0  0  0  0  0  0
    1.0447   -3.1771    0.5320 Cl  0  0  0  0  0  0  0  0  0  0  0  0
   -2.5766   -2.4995    0.2312 H   0  0  0  0  0  0  0  0  0  0  0  0
   -3.0825   -1.2424   -0.9382 H   0  0  0  0  0  0  0  0  0  0  0  0
   -4.2872   -2.0431    0.0923 H   0  0  0  0  0  0  0  0  0  0  0  0
   -2.8290    2.9054    0.0584 H   0  0  0  0  0  0  0  0  0  0  0  0
   -3.2493    2.2126   -1.5216 H   0  0  0  0  0  0  0  0  0  0  0  0
   -3.9993    1.5545   -0.0522 H   0  0  0  0  0  0  0  0  0  0  0  0
    0.4725    1.6805    0.1397 H   0  0  0  0  0  0  0  0  0  0  0  0
    2.8106    2.0597   -0.4161 H   0  0  0  0  0  0  0  0  0  0  0  0
    3.5920   -2.1936   -0.1345 H   0  0  0  0  0  0  0  0  0  0  0  0
  1  2  1  0
  2  3  1  0
  3  4  2  0
  3  5  1  0
  5  6  1  0
  3  7  1  0
  7  8  1  0
  8  9  1  0
  9 10  2  0
 10 11  1  0
 11 12  1  0
 12 13  2  0
 12 14  1  0
 11 15  2  0
 15 16  1  0
 16 17  1  0
 16  8  2  0
  1 18  1  0
  1 19  1  0
  1 20  1  0
  6 21  1  0
  6 22  1  0
  6 23  1  0
  9 24  1  0
 10 25  1  0
 15 26  1  0
M  CHG  2  12   1  14  -1
M  END
$$$$
