
     RDKit          3D

 42 42  0  0  0  0  0  0  0  0999 V2000
    3.7163   -2.6209    0.4801 C   0  0  0  0  0  0  0  0  0  0  0  0
    2.8089   -1.7645   -0.3931 C   0  0  0  0  0  0  0  0  0  0  0  0
    3.0921   -0.2548   -0.2917 C   0  0  0  0  0  0  0  0  0  0  0  0
    4.5288    0.0802   -0.7105 C   0  0  0  0  0  0  0  0  0  0  0  0
    2.1778    0.5139   -1.1781 N   0  0  0  0  0  0  0  0  0  0  0  0
    0.8327    0.6093   -0.7488 C   0  0  0  0  0  0  0  0  0  0  0  0
   -0.1726   -0.1626   -1.3525 C   0  0  0  0  0  0  0  0  0  0  0  0
    0.1278   -0.9686   -2.5209 N   0  0  0  0  0  0  0  0  0  0  0  0
    0.3368   -0.3714   -3.5856 O   0  0  0  0  0  0  0  0  0  0  0  0
    0.0683   -2.1989   -2.3792 O   0  0  0  0  0  0  0  0  0  0  0  0
   -1.5088   -0.1785   -0.9059 C   0  0  0  0  0  0  0  0  0  0  0  0
   -1.9164    0.6052    0.1865 C   0  0  0  0  0  0  0  0  0  0  0  0
   -3.3794    0.5685    0.6644 C   0  0  0  0  0  0  0  0  0  0  0  0
   -3.6575    1.4606    1.8952 C   0  0  0  0  0  0  0  0  0  0  0  0
   -3.7630   -0.8760    1.0540 C   0  0  0  0  0  0  0  0  0  0  0  0
   -4.3063    1.0518   -0.4718 C   0  0  0  0  0  0  0  0  0  0  0  0
   -0.9364    1.4105    0.7877 C   0  0  0  0  0  0  0  0  0  0  0  0
    0.4010    1.4116    0.3247 C   0  0  0  0  0  0  0  0  0  0  0  0
    1.3294    2.3201    0.9930 N   0  0  0  0  0  0  0  0  0  0  0  0
    1.2325    2.4284    2.2236 O   0  0  0  0  0  0  0  0  0  0  0  0
    2.1484    2.9256    0.2863 O   0  0  0  0  0  0  0  0  0  0  0  0
    3.3844   -3.6641    0.4535 H   0  0  0  0  0  0  0  0  0  0  0  0
    3.6920   -2.2843    1.5213 H   0  0  0  0  0  0  0  0  0  0  0  0
    4.7523   -2.5981    0.1293 H   0  0  0  0  0  0  0  0  0  0  0  0
    2.8965   -2.0964   -1.4350 H   0  0  0  0  0  0  0  0  0  0  0  0
    1.7761   -1.9644   -0.0850 H   0  0  0  0  0  0  0  0  0  0  0  0
    2.9653    0.0667    0.7492 H   0  0  0  0  0  0  0  0  0  0  0  0
    4.7380   -0.2718   -1.7268 H   0  0  0  0  0  0  0  0  0  0  0  0
    5.2595   -0.3697   -0.0319 H   0  0  0  0  0  0  0  0  0  0  0  0
    4.6984    1.1631   -0.6955 H   0  0  0  0  0  0  0  0  0  0  0  0
    2.5496    1.4723   -1.2551 H   0  0  0  0  0  0  0  0  0  0  0  0
   -2.2274   -0.8098   -1.4287 H   0  0  0  0  0  0  0  0  0  0  0  0
   -3.4552    2.5171    1.6831 H   0  0  0  0  0  0  0  0  0  0  0  0
   -4.7076    1.3912    2.2042 H   0  0  0  0  0  0  0  0  0  0  0  0
   -3.0472    1.1616    2.7555 H   0  0  0  0  0  0  0  0  0  0  0  0
   -3.0997   -1.2626    1.8372 H   0  0  0  0  0  0  0  0  0  0  0  0
   -3.7047   -1.5650    0.2040 H   0  0  0  0  0  0  0  0  0  0  0  0
   -4.7905   -0.9236    1.4332 H   0  0  0  0  0  0  0  0  0  0  0  0
   -4.2477    0.4080   -1.3566 H   0  0  0  0  0  0  0  0  0  0  0  0
   -5.3544    1.0605   -0.1501 H   0  0  0  0  0  0  0  0  0  0  0  0
   -4.0456    2.0691   -0.7877 H   0  0  0  0  0  0  0  0  0  0  0  0
   -1.1922    2.0587    1.6245 H   0  0  0  0  0  0  0  0  0  0  0  0
  1  2  1  0
  2  3  1  0
  3  4  1  0
  3  5  1  0
  5  6  1  0
  6  7  1  0
  7  8  1  0
  8  9  2  0
  8 10  1  0
  7 11  2  0
 11 12  1  0
 12 13  1  0
 13 14  1  0
 13 15  1  0
 13 16  1  0
 12 17  2  0
 17 18  1  0
 18 19  1  0
 19 20  2  0
 19 21  1  0
 18  6  2  0
  1 22  1  0
  1 23  1  0
  1 24  1  0
  2 25  1  0
  2 26  1  0
  3 27  1  0
  4 28  1  0
  4 29  1  0
  4 30  1  0
  5 31  1  0
 11 32  1  0
 14 33  1  0
 14 34  1  0
 14 35  1  0
 15 36  1  0
 15 37  1  0
 15 38  1  0
 16 39  1  0
 16 40  1  0
 16 41  1  0
 17 42  1  0
M  CHG  4   8   1  10  -1  19   1  21  -1
M  END
$$$$
