
     RDKit          3D

 21 22  0  0  0  0  0  0  0  0999 V2000
   -3.5785    0.5785   -0.4557 C   0  0  0  0  0  0  0  0  0  0  0  0
   -2.1750    0.2991   -0.2766 N   0  0  0  0  0  0  0  0  0  0  0  0
   -1.6868   -0.8862    0.1988 C   0  0  0  0  0  0  0  0  0  0  0  0
   -2.2841   -1.8788    0.5663 O   0  0  0  0  0  0  0  0  0  0  0  0
   -0.2289   -0.7680    0.1828 C   0  0  0  0  0  0  0  0  0  0  0  0
    0.7458   -1.6688    0.5690 C   0  0  0  0  0  0  0  0  0  0  0  0
    2.0810   -1.2688    0.4302 C   0  0  0  0  0  0  0  0  0  0  0  0
    2.3968    0.0131   -0.0896 C   0  0  0  0  0  0  0  0  0  0  0  0
    3.8065    0.4076   -0.2256 N   0  0  0  0  0  0  0  0  0  0  0  0
    4.6678   -0.4111    0.1224 O   0  0  0  0  0  0  0  0  0  0  0  0
    4.0453    1.5344   -0.6796 O   0  0  0  0  0  0  0  0  0  0  0  0
    1.3899    0.9115   -0.4771 C   0  0  0  0  0  0  0  0  0  0  0  0
    0.0848    0.4821   -0.3240 C   0  0  0  0  0  0  0  0  0  0  0  0
   -1.1739    1.1601   -0.6310 C   0  0  0  0  0  0  0  0  0  0  0  0
   -1.2435    2.2717   -1.1168 O   0  0  0  0  0  0  0  0  0  0  0  0
   -3.8682    0.2472   -1.4573 H   0  0  0  0  0  0  0  0  0  0  0  0
   -4.1693    0.0318    0.2843 H   0  0  0  0  0  0  0  0  0  0  0  0
   -3.7631    1.6527   -0.3694 H   0  0  0  0  0  0  0  0  0  0  0  0
    0.4821   -2.6462    0.9629 H   0  0  0  0  0  0  0  0  0  0  0  0
    2.8696   -1.9601    0.7278 H   0  0  0  0  0  0  0  0  0  0  0  0
    1.6018    1.8981   -0.8797 H   0  0  0  0  0  0  0  0  0  0  0  0
  1  2  1  0
  2  3  1  0
  3  4  2  0
  3  5  1  0
  5  6  1  0
  6  7  2  0
  7  8  1  0
  8  9  1  0
  9 10  2  0
  9 11  1  0
  8 12  2  0
 12 13  1  0
 13 14  1  0
 14 15  2  0
 14  2  1  0
 13  5  2  0
  1 16  1  0
  1 17  1  0
  1 18  1  0
  6 19  1  0
  7 20  1  0
 12 21  1  0
M  CHG  2   9   1  11  -1
M  END
$$$$
