
     RDKit          3D

 15 15  0  0  0  0  0  0  0  0999 V2000
   -3.1237    1.0664    0.5419 O   0  0  0  0  0  0  0  0  0  0  0  0
   -2.5998    0.1245   -0.0702 N   0  0  0  0  0  0  0  0  0  0  0  0
   -3.2267   -0.7404   -0.6984 O   0  0  0  0  0  0  0  0  0  0  0  0
   -1.1348    0.0277   -0.0488 C   0  0  0  0  0  0  0  0  0  0  0  0
   -0.4978   -1.0206   -0.7268 C   0  0  0  0  0  0  0  0  0  0  0  0
    0.8954   -1.1051   -0.7014 C   0  0  0  0  0  0  0  0  0  0  0  0
    1.6350   -0.1520   -0.0062 C   0  0  0  0  0  0  0  0  0  0  0  0
    2.9917   -0.2800   -0.0126 O   0  0  0  0  0  0  0  0  0  0  0  0
    1.0088    0.8925    0.6699 C   0  0  0  0  0  0  0  0  0  0  0  0
   -0.3854    0.9861    0.6505 C   0  0  0  0  0  0  0  0  0  0  0  0
   -1.0644   -1.7713   -1.2735 H   0  0  0  0  0  0  0  0  0  0  0  0
    1.4047   -1.9122   -1.2223 H   0  0  0  0  0  0  0  0  0  0  0  0
    3.3820    0.4437    0.5050 H   0  0  0  0  0  0  0  0  0  0  0  0
    1.5845    1.6366    1.2126 H   0  0  0  0  0  0  0  0  0  0  0  0
   -0.8694    1.8041    1.1804 H   0  0  0  0  0  0  0  0  0  0  0  0
  1  2  2  0
  2  3  1  0
  2  4  1  0
  4  5  1  0
  5  6  2  0
  6  7  1  0
  7  8  1  0
  7  9  2  0
  9 10  1  0
 10  4  2  0
  5 11  1  0
  6 12  1  0
  8 13  1  0
  9 14  1  0
 10 15  1  0
M  CHG  2   2   1   3  -1
M  END
$$$$
