
     RDKit          3D

 38 39  0  0  0  0  0  0  0  0999 V2000
   -6.1590   -0.2336    2.7272 O   0  0  0  0  0  0  0  0  0  0  0  0
   -5.9280    0.0490    1.5436 N   0  0  0  0  0  0  0  0  0  0  0  0
   -6.7782    0.4433    0.7340 O   0  0  0  0  0  0  0  0  0  0  0  0
   -4.5449   -0.0865    1.0658 C   0  0  0  0  0  0  0  0  0  0  0  0
   -3.5436   -0.4970    1.9530 C   0  0  0  0  0  0  0  0  0  0  0  0
   -2.2285   -0.6235    1.4971 C   0  0  0  0  0  0  0  0  0  0  0  0
   -1.8971   -0.3416    0.1607 C   0  0  0  0  0  0  0  0  0  0  0  0
   -0.5000   -0.5159   -0.2415 C   0  0  0  0  0  0  0  0  0  0  0  0
    0.4507    0.3551    0.1273 C   0  0  0  0  0  0  0  0  0  0  0  0
    1.8538    0.1587   -0.2501 C   0  0  0  0  0  0  0  0  0  0  0  0
    2.1836    0.2110   -1.6160 C   0  0  0  0  0  0  0  0  0  0  0  0
    3.5002    0.0237   -2.0470 C   0  0  0  0  0  0  0  0  0  0  0  0
    4.5064   -0.2197   -1.1060 C   0  0  0  0  0  0  0  0  0  0  0  0
    5.8913   -0.4155   -1.5571 N   0  0  0  0  0  0  0  0  0  0  0  0
    6.7532   -0.6184   -0.6912 O   0  0  0  0  0  0  0  0  0  0  0  0
    6.1137   -0.3605   -2.7743 O   0  0  0  0  0  0  0  0  0  0  0  0
    4.2046   -0.2747    0.2603 C   0  0  0  0  0  0  0  0  0  0  0  0
    2.8787   -0.0809    0.6820 C   0  0  0  0  0  0  0  0  0  0  0  0
    2.5313   -0.1620    2.4236 S   0  0  0  0  0  0  0  0  0  0  0  0
    3.7904   -0.1935    3.1367 O   0  0  0  0  0  0  0  0  0  0  0  0
    1.5169   -1.1672    2.6444 O   0  0  0  0  0  0  0  0  0  0  0  0
    1.9006    1.2787    2.7847 O   0  0  0  0  0  0  0  0  0  0  0  0
   -2.9129    0.0736   -0.7163 C   0  0  0  0  0  0  0  0  0  0  0  0
   -2.5518    0.4583   -2.4131 S   0  0  0  0  0  0  0  0  0  0  0  0
   -3.7366    1.0405   -3.0070 O   0  0  0  0  0  0  0  0  0  0  0  0
   -1.8949   -0.6827   -3.0091 O   0  0  0  0  0  0  0  0  0  0  0  0
   -1.4952    1.6756   -2.3496 O   0  0  0  0  0  0  0  0  0  0  0  0
   -4.2389    0.1995   -0.2709 C   0  0  0  0  0  0  0  0  0  0  0  0
   -3.7653   -0.7261    2.9941 H   0  0  0  0  0  0  0  0  0  0  0  0
   -1.4571   -0.9548    2.1947 H   0  0  0  0  0  0  0  0  0  0  0  0
   -0.2784   -1.3938   -0.8460 H   0  0  0  0  0  0  0  0  0  0  0  0
    0.2216    1.2260    0.7371 H   0  0  0  0  0  0  0  0  0  0  0  0
    1.4084    0.3970   -2.3607 H   0  0  0  0  0  0  0  0  0  0  0  0
    3.7179    0.0679   -3.1130 H   0  0  0  0  0  0  0  0  0  0  0  0
    4.9889   -0.4690    0.9912 H   0  0  0  0  0  0  0  0  0  0  0  0
    2.3698    1.6109    3.5804 H   0  0  0  0  0  0  0  0  0  0  0  0
   -1.8512    2.3995   -2.9083 H   0  0  0  0  0  0  0  0  0  0  0  0
   -5.0206    0.5161   -0.9605 H   0  0  0  0  0  0  0  0  0  0  0  0
  1  2  2  0
  2  3  1  0
  2  4  1  0
  4  5  1  0
  5  6  2  0
  6  7  1  0
  7  8  1  0
  8  9  2  0
  9 10  1  0
 10 11  1  0
 11 12  2  0
 12 13  1  0
 13 14  1  0
 14 15  2  0
 14 16  1  0
 13 17  2  0
 17 18  1  0
 18 19  1  0
 19 20  2  0
 19 21  2  0
 19 22  1  0
  7 23  2  0
 23 24  1  0
 24 25  2  0
 24 26  2  0
 24 27  1  0
 23 28  1  0
 28  4  2  0
 18 10  2  0
  5 29  1  0
  6 30  1  0
  8 31  1  0
  9 32  1  0
 11 33  1  0
 12 34  1  0
 17 35  1  0
 22 36  1  0
 27 37  1  0
 28 38  1  0
M  CHG  4   2   1   3  -1  14   1  16  -1
M  END
$$$$
