
     RDKit          3D

 43 44  0  0  0  0  0  0  0  0999 V2000
    3.5363   -2.1742   -1.4814 C   0  0  0  0  0  0  0  0  0  0  0  0
    2.5179   -1.5206   -0.7244 O   0  0  0  0  0  0  0  0  0  0  0  0
    2.7725   -0.2133   -0.4808 C   0  0  0  0  0  0  0  0  0  0  0  0
    3.7833    0.3978   -0.7917 O   0  0  0  0  0  0  0  0  0  0  0  0
    1.6523    0.3822    0.2753 C   0  0  0  0  0  0  0  0  0  0  0  0
    1.8800    0.9774    1.4678 C   0  0  0  0  0  0  0  0  0  0  0  0
    3.2014    0.9592    2.1943 C   0  0  0  0  0  0  0  0  0  0  0  0
    0.8558    1.6744    2.0932 N   0  0  0  0  0  0  0  0  0  0  0  0
   -0.3581    1.9765    1.4908 C   0  0  0  0  0  0  0  0  0  0  0  0
   -1.2119    2.9888    2.2115 C   0  0  0  0  0  0  0  0  0  0  0  0
   -0.6745    1.4046    0.3061 C   0  0  0  0  0  0  0  0  0  0  0  0
   -1.9332    1.6520   -0.4322 C   0  0  0  0  0  0  0  0  0  0  0  0
   -1.9761    1.7729   -1.6468 O   0  0  0  0  0  0  0  0  0  0  0  0
   -3.0007    1.6107    0.4023 O   0  0  0  0  0  0  0  0  0  0  0  0
   -4.2571    1.7542   -0.2610 C   0  0  0  0  0  0  0  0  0  0  0  0
    0.2872    0.4423   -0.4031 C   0  0  0  0  0  0  0  0  0  0  0  0
   -0.3621   -0.9448   -0.5282 C   0  0  0  0  0  0  0  0  0  0  0  0
   -0.7006   -1.6481    0.6492 C   0  0  0  0  0  0  0  0  0  0  0  0
   -1.3351   -2.8928    0.5993 C   0  0  0  0  0  0  0  0  0  0  0  0
   -1.6520   -3.4715   -0.6262 C   0  0  0  0  0  0  0  0  0  0  0  0
   -1.3271   -2.8100   -1.8076 C   0  0  0  0  0  0  0  0  0  0  0  0
   -0.6834   -1.5611   -1.7561 C   0  0  0  0  0  0  0  0  0  0  0  0
   -0.3430   -0.9576   -3.0407 N   0  0  0  0  0  0  0  0  0  0  0  0
    0.8295   -0.5957   -3.2072 O   0  0  0  0  0  0  0  0  0  0  0  0
   -1.2377   -0.9039   -3.8954 O   0  0  0  0  0  0  0  0  0  0  0  0
    3.6720   -1.6838   -2.4505 H   0  0  0  0  0  0  0  0  0  0  0  0
    4.4761   -2.1928   -0.9208 H   0  0  0  0  0  0  0  0  0  0  0  0
    3.2174   -3.2051   -1.6578 H   0  0  0  0  0  0  0  0  0  0  0  0
    3.6917    1.9342    2.1079 H   0  0  0  0  0  0  0  0  0  0  0  0
    3.8869    0.1918    1.8243 H   0  0  0  0  0  0  0  0  0  0  0  0
    3.0435    0.7484    3.2582 H   0  0  0  0  0  0  0  0  0  0  0  0
    1.1115    2.2189    2.9145 H   0  0  0  0  0  0  0  0  0  0  0  0
   -0.5849    3.7479    2.6931 H   0  0  0  0  0  0  0  0  0  0  0  0
   -1.8067    2.4970    2.9877 H   0  0  0  0  0  0  0  0  0  0  0  0
   -1.8820    3.5325    1.5393 H   0  0  0  0  0  0  0  0  0  0  0  0
   -4.3104    2.7164   -0.7801 H   0  0  0  0  0  0  0  0  0  0  0  0
   -5.0450    1.7260    0.4967 H   0  0  0  0  0  0  0  0  0  0  0  0
   -4.4176    0.9263   -0.9589 H   0  0  0  0  0  0  0  0  0  0  0  0
    0.4633    0.8847   -1.3892 H   0  0  0  0  0  0  0  0  0  0  0  0
   -0.4743   -1.2227    1.6273 H   0  0  0  0  0  0  0  0  0  0  0  0
   -1.5849   -3.4088    1.5240 H   0  0  0  0  0  0  0  0  0  0  0  0
   -2.1483   -4.4386   -0.6603 H   0  0  0  0  0  0  0  0  0  0  0  0
   -1.5718   -3.2718   -2.7625 H   0  0  0  0  0  0  0  0  0  0  0  0
  1  2  1  0
  2  3  1  0
  3  4  2  0
  3  5  1  0
  5  6  2  0
  6  7  1  0
  6  8  1  0
  8  9  1  0
  9 10  1  0
  9 11  2  0
 11 12  1  0
 12 13  2  0
 12 14  1  0
 14 15  1  0
 11 16  1  0
 16 17  1  0
 17 18  2  0
 18 19  1  0
 19 20  2  0
 20 21  1  0
 21 22  2  0
 22 23  1  0
 23 24  2  0
 23 25  1  0
 16  5  1  0
 22 17  1  0
  1 26  1  0
  1 27  1  0
  1 28  1  0
  7 29  1  0
  7 30  1  0
  7 31  1  0
  8 32  1  0
 10 33  1  0
 10 34  1  0
 10 35  1  0
 15 36  1  0
 15 37  1  0
 15 38  1  0
 16 39  1  0
 18 40  1  0
 19 41  1  0
 20 42  1  0
 21 43  1  0
M  CHG  2  23   1  25  -1
M  END
$$$$
