
     RDKit          3D

 19 19  0  0  0  0  0  0  0  0999 V2000
    0.1149   -2.0463    0.0845 C   0  0  0  0  0  0  0  0  0  0  0  0
    0.0304   -0.5435    0.0329 C   0  0  0  0  0  0  0  0  0  0  0  0
    1.1812    0.2710    0.0176 C   0  0  0  0  0  0  0  0  0  0  0  0
    2.5168   -0.3150   -0.0049 N   0  0  0  0  0  0  0  0  0  0  0  0
    3.3086    0.0590    0.8699 O   0  0  0  0  0  0  0  0  0  0  0  0
    2.7648   -1.1262   -0.9057 O   0  0  0  0  0  0  0  0  0  0  0  0
    1.1104    1.6761    0.0112 C   0  0  0  0  0  0  0  0  0  0  0  0
   -0.1311    2.3073   -0.0047 C   0  0  0  0  0  0  0  0  0  0  0  0
   -1.2929    1.5394   -0.0290 C   0  0  0  0  0  0  0  0  0  0  0  0
   -1.2042    0.1354   -0.0223 C   0  0  0  0  0  0  0  0  0  0  0  0
   -2.4633   -0.5981   -0.0882 N   0  0  0  0  0  0  0  0  0  0  0  0
   -2.5878   -1.4302   -0.9956 O   0  0  0  0  0  0  0  0  0  0  0  0
   -3.3210   -0.3184    0.7592 O   0  0  0  0  0  0  0  0  0  0  0  0
   -0.7400   -2.4798    0.6134 H   0  0  0  0  0  0  0  0  0  0  0  0
    0.9952   -2.3812    0.6426 H   0  0  0  0  0  0  0  0  0  0  0  0
    0.1554   -2.4576   -0.9286 H   0  0  0  0  0  0  0  0  0  0  0  0
    2.0179    2.2789    0.0142 H   0  0  0  0  0  0  0  0  0  0  0  0
   -0.1928    3.3938   -0.0091 H   0  0  0  0  0  0  0  0  0  0  0  0
   -2.2625    2.0356   -0.0574 H   0  0  0  0  0  0  0  0  0  0  0  0
  1  2  1  0
  2  3  2  0
  3  4  1  0
  4  5  2  0
  4  6  1  0
  3  7  1  0
  7  8  2  0
  8  9  1  0
  9 10  2  0
 10 11  1  0
 11 12  2  0
 11 13  1  0
 10  2  1  0
  1 14  1  0
  1 15  1  0
  1 16  1  0
  7 17  1  0
  8 18  1  0
  9 19  1  0
M  CHG  4   4   1   6  -1  11   1  13  -1
M  END
$$$$
