
     RDKit          3D

 32 32  0  0  0  0  0  0  0  0999 V2000
   -3.7178    2.7174    0.2248 C   0  0  0  0  0  0  0  0  0  0  0  0
   -2.4232    1.9346    0.3047 C   0  0  0  0  0  0  0  0  0  0  0  0
   -2.0932    1.4743   -0.9936 O   0  0  0  0  0  0  0  0  0  0  0  0
   -0.8685    0.4365   -1.1580 P   0  0  0  0  0  0  0  0  0  0  0  0
   -0.5506    0.0877   -2.5798 O   0  0  0  0  0  0  0  0  0  0  0  0
   -1.3267   -0.8199   -0.2531 O   0  0  0  0  0  0  0  0  0  0  0  0
   -2.3131   -1.6710   -0.8116 C   0  0  0  0  0  0  0  0  0  0  0  0
   -2.7273   -2.6836    0.2355 C   0  0  0  0  0  0  0  0  0  0  0  0
    0.3264    1.1105   -0.3154 O   0  0  0  0  0  0  0  0  0  0  0  0
    1.5486    0.5411   -0.0983 C   0  0  0  0  0  0  0  0  0  0  0  0
    2.4124    1.2578    0.7345 C   0  0  0  0  0  0  0  0  0  0  0  0
    3.6871    0.7651    1.0246 C   0  0  0  0  0  0  0  0  0  0  0  0
    4.0935   -0.4549    0.4710 C   0  0  0  0  0  0  0  0  0  0  0  0
    5.4305   -0.9823    0.7711 N   0  0  0  0  0  0  0  0  0  0  0  0
    6.1652   -0.3060    1.5051 O   0  0  0  0  0  0  0  0  0  0  0  0
    5.7447   -2.0737    0.2753 O   0  0  0  0  0  0  0  0  0  0  0  0
    3.2328   -1.1756   -0.3673 C   0  0  0  0  0  0  0  0  0  0  0  0
    1.9583   -0.6723   -0.6506 C   0  0  0  0  0  0  0  0  0  0  0  0
   -4.0062    3.0964    1.2092 H   0  0  0  0  0  0  0  0  0  0  0  0
   -3.6158    3.5630   -0.4635 H   0  0  0  0  0  0  0  0  0  0  0  0
   -4.5256    2.0874   -0.1621 H   0  0  0  0  0  0  0  0  0  0  0  0
   -2.5427    1.0872    0.9864 H   0  0  0  0  0  0  0  0  0  0  0  0
   -1.6202    2.5785    0.6760 H   0  0  0  0  0  0  0  0  0  0  0  0
   -1.8961   -2.1815   -1.6853 H   0  0  0  0  0  0  0  0  0  0  0  0
   -3.1785   -1.0784   -1.1250 H   0  0  0  0  0  0  0  0  0  0  0  0
   -3.4876   -3.3638   -0.1583 H   0  0  0  0  0  0  0  0  0  0  0  0
   -3.1283   -2.1796    1.1212 H   0  0  0  0  0  0  0  0  0  0  0  0
   -1.8646   -3.2710    0.5667 H   0  0  0  0  0  0  0  0  0  0  0  0
    2.0929    2.2066    1.1604 H   0  0  0  0  0  0  0  0  0  0  0  0
    4.3429    1.3395    1.6755 H   0  0  0  0  0  0  0  0  0  0  0  0
    3.5363   -2.1229   -0.8093 H   0  0  0  0  0  0  0  0  0  0  0  0
    1.3141   -1.2473   -1.3106 H   0  0  0  0  0  0  0  0  0  0  0  0
  1  2  1  0
  2  3  1  0
  3  4  1  0
  4  5  2  0
  4  6  1  0
  6  7  1  0
  7  8  1  0
  4  9  1  0
  9 10  1  0
 10 11  1  0
 11 12  2  0
 12 13  1  0
 13 14  1  0
 14 15  2  0
 14 16  1  0
 13 17  2  0
 17 18  1  0
 18 10  2  0
  1 19  1  0
  1 20  1  0
  1 21  1  0
  2 22  1  0
  2 23  1  0
  7 24  1  0
  7 25  1  0
  8 26  1  0
  8 27  1  0
  8 28  1  0
 11 29  1  0
 12 30  1  0
 17 31  1  0
 18 32  1  0
M  CHG  2  14   1  16  -1
M  END
$$$$
