
     RDKit          3D

 17 17  0  0  0  0  0  0  0  0999 V2000
    3.5658   -0.3650   -1.2526 O   0  0  0  0  0  0  0  0  0  0  0  0
    3.0458    0.1293   -0.2419 N   0  0  0  0  0  0  0  0  0  0  0  0
    3.6760    0.6613    0.6833 O   0  0  0  0  0  0  0  0  0  0  0  0
    1.5822    0.0859   -0.1356 C   0  0  0  0  0  0  0  0  0  0  0  0
    0.9512    0.6322    0.9887 C   0  0  0  0  0  0  0  0  0  0  0  0
   -0.4421    0.5885    1.0855 C   0  0  0  0  0  0  0  0  0  0  0  0
   -1.2121    0.0089    0.0643 C   0  0  0  0  0  0  0  0  0  0  0  0
   -2.7115   -0.0531    0.1825 C   0  0  0  0  0  0  0  0  0  0  0  0
   -3.2041   -1.5475    1.0018 Cl  0  0  0  0  0  0  0  0  0  0  0  0
   -0.5639   -0.5432   -1.0522 C   0  0  0  0  0  0  0  0  0  0  0  0
    0.8289   -0.5042   -1.1579 C   0  0  0  0  0  0  0  0  0  0  0  0
    1.5244    1.0869    1.7942 H   0  0  0  0  0  0  0  0  0  0  0  0
   -0.9250    1.0042    1.9688 H   0  0  0  0  0  0  0  0  0  0  0  0
   -3.0954    0.7979    0.7547 H   0  0  0  0  0  0  0  0  0  0  0  0
   -3.1842   -0.0277   -0.8048 H   0  0  0  0  0  0  0  0  0  0  0  0
   -1.1423   -1.0150   -1.8454 H   0  0  0  0  0  0  0  0  0  0  0  0
    1.3064   -0.9395   -2.0335 H   0  0  0  0  0  0  0  0  0  0  0  0
  1  2  2  0
  2  3  1  0
  2  4  1  0
  4  5  1  0
  5  6  2  0
  6  7  1  0
  7  8  1  0
  8  9  1  0
  7 10  2  0
 10 11  1  0
 11  4  2  0
  5 12  1  0
  6 13  1  0
  8 14  1  0
  8 15  1  0
 10 16  1  0
 11 17  1  0
M  CHG  2   2   1   3  -1
M  END
$$$$
