
     RDKit          3D

 16 16  0  0  0  0  0  0  0  0999 V2000
   -2.4942   -0.8271   -0.3970 N   0  0  0  0  0  0  0  0  0  0  0  0
   -1.2464   -0.2137   -0.2768 C   0  0  0  0  0  0  0  0  0  0  0  0
   -1.1528    1.1809   -0.2009 C   0  0  0  0  0  0  0  0  0  0  0  0
    0.0730    1.8134    0.0470 C   0  0  0  0  0  0  0  0  0  0  0  0
    1.2229    1.0544    0.2618 C   0  0  0  0  0  0  0  0  0  0  0  0
    2.6977    1.8850    0.5882 Cl  0  0  0  0  0  0  0  0  0  0  0  0
    1.1104   -0.3328    0.2358 C   0  0  0  0  0  0  0  0  0  0  0  0
    2.2659   -1.1604    0.4715 N   0  0  0  0  0  0  0  0  0  0  0  0
    2.3212   -1.7486    1.5591 O   0  0  0  0  0  0  0  0  0  0  0  0
    3.0880   -1.2542   -0.4488 O   0  0  0  0  0  0  0  0  0  0  0  0
   -0.1111   -0.9762   -0.0060 C   0  0  0  0  0  0  0  0  0  0  0  0
   -2.4735   -1.7843   -0.7369 H   0  0  0  0  0  0  0  0  0  0  0  0
   -3.2000   -0.2689   -0.8687 H   0  0  0  0  0  0  0  0  0  0  0  0
   -2.0422    1.7943   -0.3321 H   0  0  0  0  0  0  0  0  0  0  0  0
    0.1129    2.8999    0.0861 H   0  0  0  0  0  0  0  0  0  0  0  0
   -0.1718   -2.0617    0.0178 H   0  0  0  0  0  0  0  0  0  0  0  0
  1  2  1  0
  2  3  1  0
  3  4  2  0
  4  5  1  0
  5  6  1  0
  5  7  2  0
  7  8  1  0
  8  9  2  0
  8 10  1  0
  7 11  1  0
 11  2  2  0
  1 12  1  0
  1 13  1  0
  3 14  1  0
  4 15  1  0
 11 16  1  0
M  CHG  2   8   1  10  -1
M  END
$$$$
