
     RDKit          3D

 38 39  0  0  0  0  0  0  0  0999 V2000
   -6.0205    1.0426   -0.3202 N   0  0  0  0  0  0  0  0  0  0  0  0
   -4.6946    0.7432    0.0049 C   0  0  0  0  0  0  0  0  0  0  0  0
   -3.7305    1.7515    0.0246 C   0  0  0  0  0  0  0  0  0  0  0  0
   -2.3805    1.4495    0.2311 C   0  0  0  0  0  0  0  0  0  0  0  0
   -1.9576    0.1211    0.3751 C   0  0  0  0  0  0  0  0  0  0  0  0
   -0.5334   -0.1300    0.6105 C   0  0  0  0  0  0  0  0  0  0  0  0
    0.3881    0.0849   -0.3400 C   0  0  0  0  0  0  0  0  0  0  0  0
    1.8128   -0.1705   -0.1024 C   0  0  0  0  0  0  0  0  0  0  0  0
    2.2163   -1.4856    0.1879 C   0  0  0  0  0  0  0  0  0  0  0  0
    3.5622   -1.7932    0.4073 C   0  0  0  0  0  0  0  0  0  0  0  0
    4.5228   -0.7786    0.3327 C   0  0  0  0  0  0  0  0  0  0  0  0
    5.9381   -1.0992    0.5627 N   0  0  0  0  0  0  0  0  0  0  0  0
    6.7442   -0.1586    0.5745 O   0  0  0  0  0  0  0  0  0  0  0  0
    6.2400   -2.2885    0.7316 O   0  0  0  0  0  0  0  0  0  0  0  0
    4.1475    0.5389    0.0415 C   0  0  0  0  0  0  0  0  0  0  0  0
    2.7928    0.8345   -0.1737 C   0  0  0  0  0  0  0  0  0  0  0  0
    2.3246    2.5090   -0.5255 S   0  0  0  0  0  0  0  0  0  0  0  0
    1.4955    2.9880    0.5585 O   0  0  0  0  0  0  0  0  0  0  0  0
    1.8970    2.5661   -1.9051 O   0  0  0  0  0  0  0  0  0  0  0  0
    3.6833    3.3732   -0.4210 O   0  0  0  0  0  0  0  0  0  0  0  0
   -2.9200   -0.8944    0.2904 C   0  0  0  0  0  0  0  0  0  0  0  0
   -2.4583   -2.6032    0.3946 S   0  0  0  0  0  0  0  0  0  0  0  0
   -3.6011   -3.4096    0.0174 O   0  0  0  0  0  0  0  0  0  0  0  0
   -1.7717   -2.8138    1.6497 O   0  0  0  0  0  0  0  0  0  0  0  0
   -1.4016   -2.8249   -0.8051 O   0  0  0  0  0  0  0  0  0  0  0  0
   -4.2752   -0.5844    0.0902 C   0  0  0  0  0  0  0  0  0  0  0  0
   -6.3068    1.9851   -0.0721 H   0  0  0  0  0  0  0  0  0  0  0  0
   -6.6951    0.3463   -0.0169 H   0  0  0  0  0  0  0  0  0  0  0  0
   -4.0206    2.7902   -0.1149 H   0  0  0  0  0  0  0  0  0  0  0  0
   -1.6596    2.2655    0.2741 H   0  0  0  0  0  0  0  0  0  0  0  0
   -0.2695   -0.5094    1.5960 H   0  0  0  0  0  0  0  0  0  0  0  0
    0.1149    0.4641   -1.3232 H   0  0  0  0  0  0  0  0  0  0  0  0
    1.4776   -2.2867    0.2418 H   0  0  0  0  0  0  0  0  0  0  0  0
    3.8384   -2.8221    0.6321 H   0  0  0  0  0  0  0  0  0  0  0  0
    4.8987    1.3238   -0.0206 H   0  0  0  0  0  0  0  0  0  0  0  0
    3.4495    4.2487   -0.0449 H   0  0  0  0  0  0  0  0  0  0  0  0
   -1.8367   -3.3928   -1.4758 H   0  0  0  0  0  0  0  0  0  0  0  0
   -5.0109   -1.3807   -0.0006 H   0  0  0  0  0  0  0  0  0  0  0  0
  1  2  1  0
  2  3  1  0
  3  4  2  0
  4  5  1  0
  5  6  1  0
  6  7  2  0
  7  8  1  0
  8  9  1  0
  9 10  2  0
 10 11  1  0
 11 12  1  0
 12 13  2  0
 12 14  1  0
 11 15  2  0
 15 16  1  0
 16 17  1  0
 17 18  2  0
 17 19  2  0
 17 20  1  0
  5 21  2  0
 21 22  1  0
 22 23  2  0
 22 24  2  0
 22 25  1  0
 21 26  1  0
 26  2  2  0
 16  8  2  0
  1 27  1  0
  1 28  1  0
  3 29  1  0
  4 30  1  0
  6 31  1  0
  7 32  1  0
  9 33  1  0
 10 34  1  0
 15 35  1  0
 20 36  1  0
 25 37  1  0
 26 38  1  0
M  CHG  2  12   1  14  -1
M  END
$$$$
