
     RDKit          3D

 32 32  0  0  0  0  0  0  0  0999 V2000
   -0.8773    0.1483   -2.0748 C   0  0  0  0  0  0  0  0  0  0  0  0
   -0.9685    1.0924   -1.0254 O   0  0  0  0  0  0  0  0  0  0  0  0
   -0.8747    0.5890    0.5121 P   0  0  0  0  0  0  0  0  0  0  0  0
   -0.8139    1.9866    1.8564 S   0  0  0  0  0  0  0  0  0  0  0  0
    0.3552   -0.4604    0.4909 O   0  0  0  0  0  0  0  0  0  0  0  0
    1.6756   -0.1644    0.3010 C   0  0  0  0  0  0  0  0  0  0  0  0
    2.1551    1.0708   -0.1335 C   0  0  0  0  0  0  0  0  0  0  0  0
    3.5302    1.2669   -0.3053 C   0  0  0  0  0  0  0  0  0  0  0  0
    4.4204    0.2171   -0.0438 C   0  0  0  0  0  0  0  0  0  0  0  0
    5.8630    0.4204   -0.2272 N   0  0  0  0  0  0  0  0  0  0  0  0
    6.6166   -0.5266    0.0391 O   0  0  0  0  0  0  0  0  0  0  0  0
    6.2410    1.5248   -0.6430 O   0  0  0  0  0  0  0  0  0  0  0  0
    3.9425   -1.0263    0.3858 C   0  0  0  0  0  0  0  0  0  0  0  0
    2.5679   -1.2104    0.5538 C   0  0  0  0  0  0  0  0  0  0  0  0
   -2.1375   -0.4245    0.6037 O   0  0  0  0  0  0  0  0  0  0  0  0
   -3.4610    0.0949    0.5427 C   0  0  0  0  0  0  0  0  0  0  0  0
   -4.1361   -0.1466    1.8859 C   0  0  0  0  0  0  0  0  0  0  0  0
   -4.2075   -0.6272   -0.5707 C   0  0  0  0  0  0  0  0  0  0  0  0
   -1.5098    0.4834   -2.9007 H   0  0  0  0  0  0  0  0  0  0  0  0
   -1.2065   -0.8454   -1.7604 H   0  0  0  0  0  0  0  0  0  0  0  0
    0.1563    0.0943   -2.4251 H   0  0  0  0  0  0  0  0  0  0  0  0
    1.4907    1.9026   -0.3508 H   0  0  0  0  0  0  0  0  0  0  0  0
    3.8869    2.2395   -0.6402 H   0  0  0  0  0  0  0  0  0  0  0  0
    4.6183   -1.8534    0.5935 H   0  0  0  0  0  0  0  0  0  0  0  0
    2.1924   -2.1749    0.8900 H   0  0  0  0  0  0  0  0  0  0  0  0
   -3.4466    1.1679    0.3228 H   0  0  0  0  0  0  0  0  0  0  0  0
   -5.1664    0.2221    1.8845 H   0  0  0  0  0  0  0  0  0  0  0  0
   -3.5902    0.3549    2.6911 H   0  0  0  0  0  0  0  0  0  0  0  0
   -4.1460   -1.2140    2.1337 H   0  0  0  0  0  0  0  0  0  0  0  0
   -5.2476   -0.2932   -0.6340 H   0  0  0  0  0  0  0  0  0  0  0  0
   -4.1945   -1.7117   -0.4150 H   0  0  0  0  0  0  0  0  0  0  0  0
   -3.7280   -0.4430   -1.5371 H   0  0  0  0  0  0  0  0  0  0  0  0
  1  2  1  0
  2  3  1  0
  3  4  2  0
  3  5  1  0
  5  6  1  0
  6  7  1  0
  7  8  2  0
  8  9  1  0
  9 10  1  0
 10 11  2  0
 10 12  1  0
  9 13  2  0
 13 14  1  0
  3 15  1  0
 15 16  1  0
 16 17  1  0
 16 18  1  0
 14  6  2  0
  1 19  1  0
  1 20  1  0
  1 21  1  0
  7 22  1  0
  8 23  1  0
 13 24  1  0
 14 25  1  0
 16 26  1  0
 17 27  1  0
 17 28  1  0
 17 29  1  0
 18 30  1  0
 18 31  1  0
 18 32  1  0
M  CHG  2  10   1  12  -1
M  END
$$$$
