
     RDKit          3D

 29 31  0  0  0  0  0  0  0  0999 V2000
    1.3673   -2.8254    0.2415 O   0  0  0  0  0  0  0  0  0  0  0  0
    1.1467   -1.6314    0.0805 C   0  0  0  0  0  0  0  0  0  0  0  0
    2.2518   -0.6970   -0.1887 C   0  0  0  0  0  0  0  0  0  0  0  0
    3.5577   -1.1827   -0.3314 C   0  0  0  0  0  0  0  0  0  0  0  0
    4.6071   -0.2972   -0.5810 C   0  0  0  0  0  0  0  0  0  0  0  0
    4.3555    1.0704   -0.6849 C   0  0  0  0  0  0  0  0  0  0  0  0
    3.0543    1.5546   -0.5394 C   0  0  0  0  0  0  0  0  0  0  0  0
    1.9987    0.6668   -0.2932 C   0  0  0  0  0  0  0  0  0  0  0  0
    0.6275    1.1868   -0.1270 C   0  0  0  0  0  0  0  0  0  0  0  0
    0.4521    2.3942   -0.0554 O   0  0  0  0  0  0  0  0  0  0  0  0
   -0.5114    0.2474   -0.0069 C   0  0  0  0  0  0  0  0  0  0  0  0
   -0.2387   -1.1168    0.1393 C   0  0  0  0  0  0  0  0  0  0  0  0
   -1.2815   -2.0347    0.3391 C   0  0  0  0  0  0  0  0  0  0  0  0
   -2.6061   -1.5998    0.3836 C   0  0  0  0  0  0  0  0  0  0  0  0
   -2.9056   -0.2425    0.2115 C   0  0  0  0  0  0  0  0  0  0  0  0
   -4.3214    0.1848    0.2038 C   0  0  0  0  0  0  0  0  0  0  0  0
   -4.8021    1.0711   -0.4694 O   0  0  0  0  0  0  0  0  0  0  0  0
   -5.0579   -0.5375    1.0636 O   0  0  0  0  0  0  0  0  0  0  0  0
   -1.8551    0.6658    0.0099 C   0  0  0  0  0  0  0  0  0  0  0  0
   -2.1853    2.0595   -0.1827 N   0  0  0  0  0  0  0  0  0  0  0  0
   -2.4999    2.6963    0.8315 O   0  0  0  0  0  0  0  0  0  0  0  0
   -2.1569    2.4778   -1.3474 O   0  0  0  0  0  0  0  0  0  0  0  0
    3.7625   -2.2489   -0.2481 H   0  0  0  0  0  0  0  0  0  0  0  0
    5.6217   -0.6740   -0.6921 H   0  0  0  0  0  0  0  0  0  0  0  0
    5.1734    1.7619   -0.8767 H   0  0  0  0  0  0  0  0  0  0  0  0
    2.8685    2.6250   -0.6179 H   0  0  0  0  0  0  0  0  0  0  0  0
   -1.0653   -3.0970    0.4596 H   0  0  0  0  0  0  0  0  0  0  0  0
   -3.4005   -2.3302    0.5349 H   0  0  0  0  0  0  0  0  0  0  0  0
   -5.9572   -0.1473    1.0018 H   0  0  0  0  0  0  0  0  0  0  0  0
  1  2  2  0
  2  3  1  0
  3  4  2  0
  4  5  1  0
  5  6  2  0
  6  7  1  0
  7  8  2  0
  8  9  1  0
  9 10  2  0
  9 11  1  0
 11 12  2  0
 12 13  1  0
 13 14  2  0
 14 15  1  0
 15 16  1  0
 16 17  2  0
 16 18  1  0
 15 19  2  0
 19 20  1  0
 20 21  2  0
 20 22  1  0
 12  2  1  0
  8  3  1  0
 19 11  1  0
  4 23  1  0
  5 24  1  0
  6 25  1  0
  7 26  1  0
 13 27  1  0
 14 28  1  0
 18 29  1  0
M  CHG  2  20   1  22  -1
M  END
$$$$
