
     RDKit          3D

 32 32  0  0  0  0  0  0  0  0999 V2000
    4.8904   -0.8172    1.9721 O   0  0  0  0  0  0  0  0  0  0  0  0
    4.7577    0.2446    1.3467 N   0  0  0  0  0  0  0  0  0  0  0  0
    5.6207    1.1317    1.2742 O   0  0  0  0  0  0  0  0  0  0  0  0
    3.4870    0.4697    0.6466 C   0  0  0  0  0  0  0  0  0  0  0  0
    2.4323   -0.4380    0.8096 C   0  0  0  0  0  0  0  0  0  0  0  0
    1.2205   -0.2205    0.1436 C   0  0  0  0  0  0  0  0  0  0  0  0
    1.0631    0.8947   -0.6784 C   0  0  0  0  0  0  0  0  0  0  0  0
   -0.0754    1.2014   -1.3672 O   0  0  0  0  0  0  0  0  0  0  0  0
   -1.4812    0.4211   -1.3279 P   0  0  0  0  0  0  0  0  0  0  0  0
   -2.5678    1.0297   -2.1594 O   0  0  0  0  0  0  0  0  0  0  0  0
   -1.1244   -1.0967   -1.7347 O   0  0  0  0  0  0  0  0  0  0  0  0
   -2.2168   -1.9987   -1.8504 C   0  0  0  0  0  0  0  0  0  0  0  0
   -1.7612   -3.4086   -1.5082 C   0  0  0  0  0  0  0  0  0  0  0  0
   -1.3962   -3.5468    0.2341 Cl  0  0  0  0  0  0  0  0  0  0  0  0
   -1.8472    0.3103    0.2397 O   0  0  0  0  0  0  0  0  0  0  0  0
   -2.3263    1.4933    0.8642 C   0  0  0  0  0  0  0  0  0  0  0  0
   -2.2495    1.3203    2.3724 C   0  0  0  0  0  0  0  0  0  0  0  0
   -2.8221    2.7765    3.2078 Cl  0  0  0  0  0  0  0  0  0  0  0  0
    2.1209    1.7955   -0.8381 C   0  0  0  0  0  0  0  0  0  0  0  0
    3.3351    1.5907   -0.1769 C   0  0  0  0  0  0  0  0  0  0  0  0
    2.5338   -1.3134    1.4485 H   0  0  0  0  0  0  0  0  0  0  0  0
    0.4241   -0.9450    0.2872 H   0  0  0  0  0  0  0  0  0  0  0  0
   -2.5637   -1.9659   -2.8881 H   0  0  0  0  0  0  0  0  0  0  0  0
   -3.0475   -1.6899   -1.2051 H   0  0  0  0  0  0  0  0  0  0  0  0
   -0.8481   -3.6728   -2.0500 H   0  0  0  0  0  0  0  0  0  0  0  0
   -2.5440   -4.1370   -1.7365 H   0  0  0  0  0  0  0  0  0  0  0  0
   -1.7191    2.3486    0.5449 H   0  0  0  0  0  0  0  0  0  0  0  0
   -3.3611    1.6592    0.5429 H   0  0  0  0  0  0  0  0  0  0  0  0
   -1.2186    1.1227    2.6874 H   0  0  0  0  0  0  0  0  0  0  0  0
   -2.8593    0.4711    2.6994 H   0  0  0  0  0  0  0  0  0  0  0  0
    2.0006    2.6631   -1.4836 H   0  0  0  0  0  0  0  0  0  0  0  0
    4.1433    2.3062   -0.3167 H   0  0  0  0  0  0  0  0  0  0  0  0
  1  2  2  0
  2  3  1  0
  2  4  1  0
  4  5  1  0
  5  6  2  0
  6  7  1  0
  7  8  1  0
  8  9  1  0
  9 10  2  0
  9 11  1  0
 11 12  1  0
 12 13  1  0
 13 14  1  0
  9 15  1  0
 15 16  1  0
 16 17  1  0
 17 18  1  0
  7 19  2  0
 19 20  1  0
 20  4  2  0
  5 21  1  0
  6 22  1  0
 12 23  1  0
 12 24  1  0
 13 25  1  0
 13 26  1  0
 16 27  1  0
 16 28  1  0
 17 29  1  0
 17 30  1  0
 19 31  1  0
 20 32  1  0
M  CHG  2   2   1   3  -1
M  END
$$$$
