
     RDKit          3D

 31 32  0  0  0  0  0  0  0  0999 V2000
   -4.5265    2.0450   -1.7818 O   0  0  0  0  0  0  0  0  0  0  0  0
   -4.4452    0.9441   -1.2750 C   0  0  0  0  0  0  0  0  0  0  0  0
   -5.4610    0.0680   -1.2843 O   0  0  0  0  0  0  0  0  0  0  0  0
   -3.2294    0.3471   -0.6967 C   0  0  0  0  0  0  0  0  0  0  0  0
   -2.0139    0.6184   -1.3392 C   0  0  0  0  0  0  0  0  0  0  0  0
   -0.8235    0.0462   -0.8758 C   0  0  0  0  0  0  0  0  0  0  0  0
    0.3046    0.3678   -1.6015 O   0  0  0  0  0  0  0  0  0  0  0  0
    1.5213    0.2742   -0.9693 C   0  0  0  0  0  0  0  0  0  0  0  0
    2.3555   -0.7824   -1.3434 C   0  0  0  0  0  0  0  0  0  0  0  0
    3.6187   -0.9131   -0.7629 C   0  0  0  0  0  0  0  0  0  0  0  0
    4.0712    0.0251    0.1787 C   0  0  0  0  0  0  0  0  0  0  0  0
    5.4278   -0.1242    0.8257 C   0  0  0  0  0  0  0  0  0  0  0  0
    6.0115    1.0702    1.1175 F   0  0  0  0  0  0  0  0  0  0  0  0
    5.3618   -0.8087    1.9998 F   0  0  0  0  0  0  0  0  0  0  0  0
    6.3200   -0.7963    0.0474 F   0  0  0  0  0  0  0  0  0  0  0  0
    3.2303    1.0945    0.5329 C   0  0  0  0  0  0  0  0  0  0  0  0
    1.9655    1.2274   -0.0471 C   0  0  0  0  0  0  0  0  0  0  0  0
    1.0021    2.5881    0.3956 Cl  0  0  0  0  0  0  0  0  0  0  0  0
   -0.8436   -0.8183    0.2250 C   0  0  0  0  0  0  0  0  0  0  0  0
   -2.0464   -1.0793    0.8863 C   0  0  0  0  0  0  0  0  0  0  0  0
   -3.2290   -0.4842    0.4247 C   0  0  0  0  0  0  0  0  0  0  0  0
   -4.4406   -0.7063    1.1897 N   0  0  0  0  0  0  0  0  0  0  0  0
   -4.7492   -1.8824    1.4250 O   0  0  0  0  0  0  0  0  0  0  0  0
   -5.0406    0.2952    1.6025 O   0  0  0  0  0  0  0  0  0  0  0  0
   -6.2092    0.5563   -1.6920 H   0  0  0  0  0  0  0  0  0  0  0  0
   -1.9903    1.2758   -2.2077 H   0  0  0  0  0  0  0  0  0  0  0  0
    2.0194   -1.5048   -2.0838 H   0  0  0  0  0  0  0  0  0  0  0  0
    4.2554   -1.7484   -1.0547 H   0  0  0  0  0  0  0  0  0  0  0  0
    3.5716    1.8328    1.2580 H   0  0  0  0  0  0  0  0  0  0  0  0
    0.0638   -1.2950    0.5869 H   0  0  0  0  0  0  0  0  0  0  0  0
   -2.0522   -1.7327    1.7571 H   0  0  0  0  0  0  0  0  0  0  0  0
  1  2  2  0
  2  3  1  0
  2  4  1  0
  4  5  1  0
  5  6  2  0
  6  7  1  0
  7  8  1  0
  8  9  1  0
  9 10  2  0
 10 11  1  0
 11 12  1  0
 12 13  1  0
 12 14  1  0
 12 15  1  0
 11 16  2  0
 16 17  1  0
 17 18  1  0
  6 19  1  0
 19 20  2  0
 20 21  1  0
 21 22  1  0
 22 23  2  0
 22 24  1  0
 21  4  2  0
 17  8  2  0
  3 25  1  0
  5 26  1  0
  9 27  1  0
 10 28  1  0
 16 29  1  0
 19 30  1  0
 20 31  1  0
M  CHG  2  22   1  24  -1
M  END
$$$$
