
     RDKit          3D

 16 16  0  0  0  0  0  0  0  0999 V2000
   -4.1521    0.0926    0.7169 O   0  0  0  0  0  0  0  0  0  0  0  0
   -3.3804   -0.0537   -0.1581 C   0  0  0  0  0  0  0  0  0  0  0  0
   -2.6091   -0.1999   -1.0322 N   0  0  0  0  0  0  0  0  0  0  0  0
   -1.2832   -0.1112   -0.5815 C   0  0  0  0  0  0  0  0  0  0  0  0
   -0.6082    1.1187   -0.5958 C   0  0  0  0  0  0  0  0  0  0  0  0
    0.7254    1.2079   -0.1832 C   0  0  0  0  0  0  0  0  0  0  0  0
    1.3970    0.0515    0.2337 C   0  0  0  0  0  0  0  0  0  0  0  0
    2.7984    0.1375    0.6655 N   0  0  0  0  0  0  0  0  0  0  0  0
    3.3556   -0.9096    1.0236 O   0  0  0  0  0  0  0  0  0  0  0  0
    3.3391    1.2522    0.6465 O   0  0  0  0  0  0  0  0  0  0  0  0
    0.7441   -1.1878    0.2335 C   0  0  0  0  0  0  0  0  0  0  0  0
   -0.5897   -1.2633   -0.1814 C   0  0  0  0  0  0  0  0  0  0  0  0
   -1.1232    2.0157   -0.9352 H   0  0  0  0  0  0  0  0  0  0  0  0
    1.2216    2.1765   -0.1996 H   0  0  0  0  0  0  0  0  0  0  0  0
    1.2549   -2.0974    0.5439 H   0  0  0  0  0  0  0  0  0  0  0  0
   -1.0901   -2.2299   -0.1966 H   0  0  0  0  0  0  0  0  0  0  0  0
  1  2  2  0
  2  3  2  0
  3  4  1  0
  4  5  1  0
  5  6  2  0
  6  7  1  0
  7  8  1  0
  8  9  2  0
  8 10  1  0
  7 11  2  0
 11 12  1  0
 12  4  2  0
  5 13  1  0
  6 14  1  0
 11 15  1  0
 12 16  1  0
M  CHG  2   8   1  10  -1
M  END
$$$$
