
     RDKit          3D

 35 35  0  0  0  0  0  0  0  0999 V2000
   -4.3223   -2.4929    0.8237 C   0  0  0  0  0  0  0  0  0  0  0  0
   -3.0127   -2.4247    0.0654 C   0  0  0  0  0  0  0  0  0  0  0  0
   -2.7571   -1.0713   -0.2717 O   0  0  0  0  0  0  0  0  0  0  0  0
   -1.2795   -0.6760   -0.8091 P   0  0  0  0  0  0  0  0  0  0  0  0
   -0.7215   -1.5323   -2.4588 S   0  0  0  0  0  0  0  0  0  0  0  0
   -1.3875    0.9406   -0.8257 O   0  0  0  0  0  0  0  0  0  0  0  0
   -2.3113    1.5467   -1.7140 C   0  0  0  0  0  0  0  0  0  0  0  0
   -2.3738    3.0284   -1.4043 C   0  0  0  0  0  0  0  0  0  0  0  0
   -0.3848   -0.9430    0.5098 O   0  0  0  0  0  0  0  0  0  0  0  0
    0.9164   -0.5725    0.6995 C   0  0  0  0  0  0  0  0  0  0  0  0
    1.5188   -1.0749    1.8543 C   0  0  0  0  0  0  0  0  0  0  0  0
    2.8458   -0.7640    2.1474 C   0  0  0  0  0  0  0  0  0  0  0  0
    3.5681    0.0611    1.2745 C   0  0  0  0  0  0  0  0  0  0  0  0
    4.9591    0.3432    1.6174 N   0  0  0  0  0  0  0  0  0  0  0  0
    5.1936    0.6801    2.7865 O   0  0  0  0  0  0  0  0  0  0  0  0
    5.8098    0.2073    0.7283 O   0  0  0  0  0  0  0  0  0  0  0  0
    2.9755    0.6013    0.1179 C   0  0  0  0  0  0  0  0  0  0  0  0
    3.7074    1.5030   -0.8380 C   0  0  0  0  0  0  0  0  0  0  0  0
    1.6376    0.2601   -0.1594 C   0  0  0  0  0  0  0  0  0  0  0  0
   -4.5611   -3.5241    1.0987 H   0  0  0  0  0  0  0  0  0  0  0  0
   -4.2722   -1.8868    1.7343 H   0  0  0  0  0  0  0  0  0  0  0  0
   -5.1406   -2.0901    0.2177 H   0  0  0  0  0  0  0  0  0  0  0  0
   -2.2015   -2.8191    0.6852 H   0  0  0  0  0  0  0  0  0  0  0  0
   -3.0814   -3.0191   -0.8505 H   0  0  0  0  0  0  0  0  0  0  0  0
   -3.3014    1.0975   -1.5907 H   0  0  0  0  0  0  0  0  0  0  0  0
   -1.9782    1.3966   -2.7451 H   0  0  0  0  0  0  0  0  0  0  0  0
   -3.0739    3.5377   -2.0723 H   0  0  0  0  0  0  0  0  0  0  0  0
   -1.3851    3.4869   -1.5119 H   0  0  0  0  0  0  0  0  0  0  0  0
   -2.6899    3.1926   -0.3688 H   0  0  0  0  0  0  0  0  0  0  0  0
    0.9543   -1.7156    2.5283 H   0  0  0  0  0  0  0  0  0  0  0  0
    3.3060   -1.1677    3.0471 H   0  0  0  0  0  0  0  0  0  0  0  0
    3.0102    2.0295   -1.4991 H   0  0  0  0  0  0  0  0  0  0  0  0
    4.2683    2.2726   -0.2980 H   0  0  0  0  0  0  0  0  0  0  0  0
    4.3887    0.9191   -1.4643 H   0  0  0  0  0  0  0  0  0  0  0  0
    1.1762    0.6696   -1.0543 H   0  0  0  0  0  0  0  0  0  0  0  0
  1  2  1  0
  2  3  1  0
  3  4  1  0
  4  5  2  0
  4  6  1  0
  6  7  1  0
  7  8  1  0
  4  9  1  0
  9 10  1  0
 10 11  1  0
 11 12  2  0
 12 13  1  0
 13 14  1  0
 14 15  2  0
 14 16  1  0
 13 17  2  0
 17 18  1  0
 17 19  1  0
 19 10  2  0
  1 20  1  0
  1 21  1  0
  1 22  1  0
  2 23  1  0
  2 24  1  0
  7 25  1  0
  7 26  1  0
  8 27  1  0
  8 28  1  0
  8 29  1  0
 11 30  1  0
 12 31  1  0
 18 32  1  0
 18 33  1  0
 18 34  1  0
 19 35  1  0
M  CHG  2  14   1  16  -1
M  END
$$$$
