
     RDKit          3D

 26 26  0  0  0  0  0  0  0  0999 V2000
   -2.1449   -0.2703    1.8361 C   0  0  0  0  0  0  0  0  0  0  0  0
   -1.9255    0.8354    0.9816 O   0  0  0  0  0  0  0  0  0  0  0  0
   -1.8303    0.5994   -0.6185 P   0  0  0  0  0  0  0  0  0  0  0  0
   -1.6588    2.1981   -1.7003 S   0  0  0  0  0  0  0  0  0  0  0  0
   -3.1343   -0.3181   -0.9059 O   0  0  0  0  0  0  0  0  0  0  0  0
   -4.4111    0.2905   -0.8572 C   0  0  0  0  0  0  0  0  0  0  0  0
   -0.6472   -0.4960   -0.7590 O   0  0  0  0  0  0  0  0  0  0  0  0
    0.6796   -0.3011   -0.4925 C   0  0  0  0  0  0  0  0  0  0  0  0
    1.5377   -1.3040   -0.9533 C   0  0  0  0  0  0  0  0  0  0  0  0
    2.9141   -1.2175   -0.7295 C   0  0  0  0  0  0  0  0  0  0  0  0
    3.9085   -2.4947   -1.3282 Cl  0  0  0  0  0  0  0  0  0  0  0  0
    3.4159   -0.1182   -0.0350 C   0  0  0  0  0  0  0  0  0  0  0  0
    4.8277   -0.0268    0.2119 N   0  0  0  0  0  0  0  0  0  0  0  0
    5.5096    0.5492   -0.6446 O   0  0  0  0  0  0  0  0  0  0  0  0
    5.2438   -0.5340    1.2612 O   0  0  0  0  0  0  0  0  0  0  0  0
    2.5718    0.8871    0.4379 C   0  0  0  0  0  0  0  0  0  0  0  0
    3.1421    2.2606    1.3160 Cl  0  0  0  0  0  0  0  0  0  0  0  0
    1.1940    0.7901    0.2068 C   0  0  0  0  0  0  0  0  0  0  0  0
   -3.1758   -0.6199    1.7417 H   0  0  0  0  0  0  0  0  0  0  0  0
   -1.4542   -1.0864    1.6113 H   0  0  0  0  0  0  0  0  0  0  0  0
   -1.9795    0.0513    2.8676 H   0  0  0  0  0  0  0  0  0  0  0  0
   -5.1636   -0.4910   -0.7245 H   0  0  0  0  0  0  0  0  0  0  0  0
   -4.4809    0.9901   -0.0198 H   0  0  0  0  0  0  0  0  0  0  0  0
   -4.6097    0.8116   -1.7971 H   0  0  0  0  0  0  0  0  0  0  0  0
    1.1249   -2.1547   -1.4938 H   0  0  0  0  0  0  0  0  0  0  0  0
    0.5462    1.5760    0.5872 H   0  0  0  0  0  0  0  0  0  0  0  0
  1  2  1  0
  2  3  1  0
  3  4  2  0
  3  5  1  0
  5  6  1  0
  3  7  1  0
  7  8  1  0
  8  9  1  0
  9 10  2  0
 10 11  1  0
 10 12  1  0
 12 13  1  0
 13 14  2  0
 13 15  1  0
 12 16  2  0
 16 17  1  0
 16 18  1  0
 18  8  2  0
  1 19  1  0
  1 20  1  0
  1 21  1  0
  6 22  1  0
  6 23  1  0
  6 24  1  0
  9 25  1  0
 18 26  1  0
M  CHG  2  13   1  15  -1
M  END
$$$$
