
     RDKit          3D

 28 29  0  0  0  0  0  0  0  0999 V2000
   -4.9126   -1.0036    0.2909 N   0  0  0  0  0  0  0  0  0  0  0  0
   -3.5515   -0.6814    0.2433 C   0  0  0  0  0  0  0  0  0  0  0  0
   -2.7556   -0.8171    1.3813 C   0  0  0  0  0  0  0  0  0  0  0  0
   -1.3734   -0.6098    1.3173 C   0  0  0  0  0  0  0  0  0  0  0  0
   -0.7513   -0.3012    0.1001 C   0  0  0  0  0  0  0  0  0  0  0  0
    0.6986   -0.0865    0.0256 C   0  0  0  0  0  0  0  0  0  0  0  0
    1.5218   -1.0786   -0.5266 C   0  0  0  0  0  0  0  0  0  0  0  0
    2.9117   -0.9066   -0.6019 C   0  0  0  0  0  0  0  0  0  0  0  0
    3.5203    0.2754   -0.1690 C   0  0  0  0  0  0  0  0  0  0  0  0
    4.9128    0.3790   -0.1384 N   0  0  0  0  0  0  0  0  0  0  0  0
    2.7290    1.2496    0.4342 C   0  0  0  0  0  0  0  0  0  0  0  0
    1.3403    1.0662    0.5030 C   0  0  0  0  0  0  0  0  0  0  0  0
    0.5647    2.1346    1.0927 N   0  0  0  0  0  0  0  0  0  0  0  0
    0.0556    2.9539    0.3165 O   0  0  0  0  0  0  0  0  0  0  0  0
    0.5069    2.1689    2.3293 O   0  0  0  0  0  0  0  0  0  0  0  0
   -1.5462   -0.2294   -1.0517 C   0  0  0  0  0  0  0  0  0  0  0  0
   -2.9279   -0.4376   -0.9810 C   0  0  0  0  0  0  0  0  0  0  0  0
   -5.3343   -0.8526    1.2022 H   0  0  0  0  0  0  0  0  0  0  0  0
   -5.4569   -0.5827   -0.4557 H   0  0  0  0  0  0  0  0  0  0  0  0
   -3.2045   -1.0825    2.3349 H   0  0  0  0  0  0  0  0  0  0  0  0
   -0.7865   -0.7045    2.2294 H   0  0  0  0  0  0  0  0  0  0  0  0
    1.0868   -2.0101   -0.8871 H   0  0  0  0  0  0  0  0  0  0  0  0
    3.5175   -1.7156   -1.0048 H   0  0  0  0  0  0  0  0  0  0  0  0
    5.3926   -0.1894   -0.8302 H   0  0  0  0  0  0  0  0  0  0  0  0
    5.2692    1.3297   -0.1097 H   0  0  0  0  0  0  0  0  0  0  0  0
    3.1825    2.1472    0.8469 H   0  0  0  0  0  0  0  0  0  0  0  0
   -1.0957   -0.0137   -2.0184 H   0  0  0  0  0  0  0  0  0  0  0  0
   -3.5140   -0.4014   -1.8955 H   0  0  0  0  0  0  0  0  0  0  0  0
  1  2  1  0
  2  3  1  0
  3  4  2  0
  4  5  1  0
  5  6  1  0
  6  7  1  0
  7  8  2  0
  8  9  1  0
  9 10  1  0
  9 11  2  0
 11 12  1  0
 12 13  1  0
 13 14  2  0
 13 15  1  0
  5 16  2  0
 16 17  1  0
 17  2  2  0
 12  6  2  0
  1 18  1  0
  1 19  1  0
  3 20  1  0
  4 21  1  0
  7 22  1  0
  8 23  1  0
 10 24  1  0
 10 25  1  0
 11 26  1  0
 16 27  1  0
 17 28  1  0
M  CHG  2  13   1  15  -1
M  END
$$$$
