
     RDKit          3D

 32 32  0  0  0  0  0  0  0  0999 V2000
   -1.5164    2.9014    1.2471 C   0  0  0  0  0  0  0  0  0  0  0  0
   -1.7997    1.5852    0.5526 C   0  0  0  0  0  0  0  0  0  0  0  0
   -1.2683    0.5356    1.3443 O   0  0  0  0  0  0  0  0  0  0  0  0
   -1.0643   -0.9280    0.6832 P   0  0  0  0  0  0  0  0  0  0  0  0
   -0.6175   -2.3379    1.9322 S   0  0  0  0  0  0  0  0  0  0  0  0
   -2.4472   -1.1095   -0.1394 O   0  0  0  0  0  0  0  0  0  0  0  0
   -2.5690   -2.2184   -1.0160 C   0  0  0  0  0  0  0  0  0  0  0  0
   -3.8271   -2.0415   -1.8410 C   0  0  0  0  0  0  0  0  0  0  0  0
   -0.0065   -0.6380   -0.5030 O   0  0  0  0  0  0  0  0  0  0  0  0
    1.3218   -0.3431   -0.3534 C   0  0  0  0  0  0  0  0  0  0  0  0
    1.8502    0.2307    0.8024 C   0  0  0  0  0  0  0  0  0  0  0  0
    3.2232    0.5202    0.8518 C   0  0  0  0  0  0  0  0  0  0  0  0
    3.7356    1.1289    2.0589 N   0  0  0  0  0  0  0  0  0  0  0  0
    4.5171    0.4598    2.7436 O   0  0  0  0  0  0  0  0  0  0  0  0
    3.3154    2.2619    2.3278 O   0  0  0  0  0  0  0  0  0  0  0  0
    4.0716    0.2631   -0.2253 C   0  0  0  0  0  0  0  0  0  0  0  0
    5.7503    0.6576   -0.2319 Cl  0  0  0  0  0  0  0  0  0  0  0  0
    3.5334   -0.3099   -1.3791 C   0  0  0  0  0  0  0  0  0  0  0  0
    2.1680   -0.6081   -1.4421 C   0  0  0  0  0  0  0  0  0  0  0  0
    1.5513   -1.3104   -2.8948 Cl  0  0  0  0  0  0  0  0  0  0  0  0
   -1.9091    3.7413    0.6681 H   0  0  0  0  0  0  0  0  0  0  0  0
   -1.9699    2.9170    2.2431 H   0  0  0  0  0  0  0  0  0  0  0  0
   -0.4391    3.0401    1.3853 H   0  0  0  0  0  0  0  0  0  0  0  0
   -1.3414    1.5829   -0.4410 H   0  0  0  0  0  0  0  0  0  0  0  0
   -2.8795    1.4414    0.4464 H   0  0  0  0  0  0  0  0  0  0  0  0
   -2.6339   -3.1406   -0.4309 H   0  0  0  0  0  0  0  0  0  0  0  0
   -1.6960   -2.2733   -1.6744 H   0  0  0  0  0  0  0  0  0  0  0  0
   -3.7897   -1.1035   -2.4052 H   0  0  0  0  0  0  0  0  0  0  0  0
   -3.9558   -2.8711   -2.5421 H   0  0  0  0  0  0  0  0  0  0  0  0
   -4.7085   -1.9862   -1.1939 H   0  0  0  0  0  0  0  0  0  0  0  0
    1.2282    0.4707    1.6615 H   0  0  0  0  0  0  0  0  0  0  0  0
    4.1730   -0.5185   -2.2347 H   0  0  0  0  0  0  0  0  0  0  0  0
  1  2  1  0
  2  3  1  0
  3  4  1  0
  4  5  2  0
  4  6  1  0
  6  7  1  0
  7  8  1  0
  4  9  1  0
  9 10  1  0
 10 11  2  0
 11 12  1  0
 12 13  1  0
 13 14  2  0
 13 15  1  0
 12 16  2  0
 16 17  1  0
 16 18  1  0
 18 19  2  0
 19 20  1  0
 19 10  1  0
  1 21  1  0
  1 22  1  0
  1 23  1  0
  2 24  1  0
  2 25  1  0
  7 26  1  0
  7 27  1  0
  8 28  1  0
  8 29  1  0
  8 30  1  0
 11 31  1  0
 18 32  1  0
M  CHG  2  13   1  15  -1
M  END
$$$$
