
     RDKit          3D

 34 35  0  0  0  0  0  0  0  0999 V2000
   -3.2293   -1.6011   -0.7387 C   0  0  0  0  0  0  0  0  0  0  0  0
   -2.4990   -0.2829   -0.9556 C   0  0  0  0  0  0  0  0  0  0  0  0
   -2.1994    0.3543    0.3297 N   0  0  0  0  0  0  0  0  0  0  0  0
   -2.6509    1.7496    0.3616 C   0  0  0  0  0  0  0  0  0  0  0  0
   -4.1659    1.8617    0.4875 C   0  0  0  0  0  0  0  0  0  0  0  0
   -0.7449    0.0210    1.0602 P   0  0  0  0  0  0  0  0  0  0  0  0
   -0.6365    0.2317    2.9931 S   0  0  0  0  0  0  0  0  0  0  0  0
   -0.3324   -1.4586    0.5462 O   0  0  0  0  0  0  0  0  0  0  0  0
    1.0065   -1.8555    0.7683 C   0  0  0  0  0  0  0  0  0  0  0  0
    1.9860   -0.8329    0.2635 C   0  0  0  0  0  0  0  0  0  0  0  0
    3.3245   -1.1984    0.0450 C   0  0  0  0  0  0  0  0  0  0  0  0
    4.2480   -0.2459   -0.4147 C   0  0  0  0  0  0  0  0  0  0  0  0
    5.6439   -0.6391   -0.6492 N   0  0  0  0  0  0  0  0  0  0  0  0
    5.9523   -1.8195   -0.4320 O   0  0  0  0  0  0  0  0  0  0  0  0
    6.4281    0.2308   -1.0530 O   0  0  0  0  0  0  0  0  0  0  0  0
    3.8496    1.0747   -0.6543 C   0  0  0  0  0  0  0  0  0  0  0  0
    2.5226    1.4400   -0.4266 C   0  0  0  0  0  0  0  0  0  0  0  0
    1.6078    0.4937    0.0377 C   0  0  0  0  0  0  0  0  0  0  0  0
    0.3257    0.9202    0.2350 O   0  0  0  0  0  0  0  0  0  0  0  0
   -2.6386   -2.3088   -0.1502 H   0  0  0  0  0  0  0  0  0  0  0  0
   -3.4476   -2.0709   -1.7032 H   0  0  0  0  0  0  0  0  0  0  0  0
   -4.1813   -1.4407   -0.2213 H   0  0  0  0  0  0  0  0  0  0  0  0
   -3.1276    0.3458   -1.5974 H   0  0  0  0  0  0  0  0  0  0  0  0
   -1.5774   -0.4491   -1.5254 H   0  0  0  0  0  0  0  0  0  0  0  0
   -2.2209    2.2612    1.2301 H   0  0  0  0  0  0  0  0  0  0  0  0
   -2.2914    2.2968   -0.5183 H   0  0  0  0  0  0  0  0  0  0  0  0
   -4.4551    2.9136    0.5824 H   0  0  0  0  0  0  0  0  0  0  0  0
   -4.5249    1.3345    1.3780 H   0  0  0  0  0  0  0  0  0  0  0  0
   -4.6855    1.4537   -0.3844 H   0  0  0  0  0  0  0  0  0  0  0  0
    1.1523   -2.7995    0.2326 H   0  0  0  0  0  0  0  0  0  0  0  0
    1.1670   -2.0443    1.8345 H   0  0  0  0  0  0  0  0  0  0  0  0
    3.6374   -2.2251    0.2328 H   0  0  0  0  0  0  0  0  0  0  0  0
    4.5531    1.8243   -1.0114 H   0  0  0  0  0  0  0  0  0  0  0  0
    2.2038    2.4647   -0.6048 H   0  0  0  0  0  0  0  0  0  0  0  0
  1  2  1  0
  2  3  1  0
  3  4  1  0
  4  5  1  0
  3  6  1  0
  6  7  2  0
  6  8  1  0
  8  9  1  0
  9 10  1  0
 10 11  1  0
 11 12  2  0
 12 13  1  0
 13 14  2  0
 13 15  1  0
 12 16  1  0
 16 17  2  0
 17 18  1  0
 18 19  1  0
 19  6  1  0
 18 10  2  0
  1 20  1  0
  1 21  1  0
  1 22  1  0
  2 23  1  0
  2 24  1  0
  4 25  1  0
  4 26  1  0
  5 27  1  0
  5 28  1  0
  5 29  1  0
  9 30  1  0
  9 31  1  0
 11 32  1  0
 16 33  1  0
 17 34  1  0
M  CHG  2  13   1  15  -1
M  END
$$$$
