
     RDKit          3D

 16 16  0  0  0  0  0  0  0  0999 V2000
    3.4336   -0.3973    0.4240 O   0  0  0  0  0  0  0  0  0  0  0  0
    2.5151   -0.7646   -0.3170 N   0  0  0  0  0  0  0  0  0  0  0  0
    2.5995   -1.6359   -1.1924 O   0  0  0  0  0  0  0  0  0  0  0  0
    1.2116   -0.1619   -0.1245 C   0  0  0  0  0  0  0  0  0  0  0  0
    0.0718   -0.9756   -0.1332 C   0  0  0  0  0  0  0  0  0  0  0  0
   -1.1731   -0.3616    0.0531 C   0  0  0  0  0  0  0  0  0  0  0  0
   -2.3724   -1.1746    0.0523 N   0  0  0  0  0  0  0  0  0  0  0  0
   -2.3135   -2.2505    0.6618 O   0  0  0  0  0  0  0  0  0  0  0  0
   -3.3485   -0.7591   -0.5819 O   0  0  0  0  0  0  0  0  0  0  0  0
   -1.2785    1.0150    0.2491 C   0  0  0  0  0  0  0  0  0  0  0  0
   -2.4614    1.6035    0.4656 F   0  0  0  0  0  0  0  0  0  0  0  0
   -0.1331    1.8089    0.2470 C   0  0  0  0  0  0  0  0  0  0  0  0
    1.1142    1.2174    0.0557 C   0  0  0  0  0  0  0  0  0  0  0  0
    2.1958    2.0060    0.0272 F   0  0  0  0  0  0  0  0  0  0  0  0
    0.1510   -2.0519   -0.2801 H   0  0  0  0  0  0  0  0  0  0  0  0
   -0.2121    2.8821    0.3935 H   0  0  0  0  0  0  0  0  0  0  0  0
  1  2  2  0
  2  3  1  0
  2  4  1  0
  4  5  2  0
  5  6  1  0
  6  7  1  0
  7  8  2  0
  7  9  1  0
  6 10  2  0
 10 11  1  0
 10 12  1  0
 12 13  2  0
 13 14  1  0
 13  4  1  0
  5 15  1  0
 12 16  1  0
M  CHG  4   2   1   3  -1   7   1   9  -1
M  END
$$$$
