
     RDKit          3D

 30 31  0  0  0  0  0  0  0  0999 V2000
   -4.7824   -1.1940    1.1168 C   0  0  0  0  0  0  0  0  0  0  0  0
   -4.0649   -0.1487    0.2778 C   0  0  0  0  0  0  0  0  0  0  0  0
   -2.5523   -0.3619    0.2917 C   0  0  0  0  0  0  0  0  0  0  0  0
   -1.8346    0.6915   -0.5532 C   0  0  0  0  0  0  0  0  0  0  0  0
   -0.3984    0.4903   -0.5409 N   0  0  0  0  0  0  0  0  0  0  0  0
    0.2668   -0.3256   -1.4144 C   0  0  0  0  0  0  0  0  0  0  0  0
   -0.1643   -0.9843   -2.3403 O   0  0  0  0  0  0  0  0  0  0  0  0
    1.6753   -0.2906   -1.0223 C   0  0  0  0  0  0  0  0  0  0  0  0
    2.7737   -0.9212   -1.5757 C   0  0  0  0  0  0  0  0  0  0  0  0
    4.0157   -0.6989   -0.9676 C   0  0  0  0  0  0  0  0  0  0  0  0
    4.1181    0.1418    0.1708 C   0  0  0  0  0  0  0  0  0  0  0  0
    5.4337    0.3574    0.7907 N   0  0  0  0  0  0  0  0  0  0  0  0
    6.4075   -0.2166    0.2849 O   0  0  0  0  0  0  0  0  0  0  0  0
    5.4866    1.0999    1.7799 O   0  0  0  0  0  0  0  0  0  0  0  0
    2.9881    0.7706    0.7173 C   0  0  0  0  0  0  0  0  0  0  0  0
    1.7807    0.5289    0.0889 C   0  0  0  0  0  0  0  0  0  0  0  0
    0.4389    1.0158    0.4045 C   0  0  0  0  0  0  0  0  0  0  0  0
    0.1850    1.7365    1.3494 O   0  0  0  0  0  0  0  0  0  0  0  0
   -5.8631   -1.0227    1.0928 H   0  0  0  0  0  0  0  0  0  0  0  0
   -4.5897   -2.2022    0.7363 H   0  0  0  0  0  0  0  0  0  0  0  0
   -4.4548   -1.1518    2.1604 H   0  0  0  0  0  0  0  0  0  0  0  0
   -4.4382   -0.1959   -0.7518 H   0  0  0  0  0  0  0  0  0  0  0  0
   -4.3040    0.8488    0.6645 H   0  0  0  0  0  0  0  0  0  0  0  0
   -2.3157   -1.3637   -0.0879 H   0  0  0  0  0  0  0  0  0  0  0  0
   -2.1819   -0.3225    1.3237 H   0  0  0  0  0  0  0  0  0  0  0  0
   -2.1838    0.6406   -1.5908 H   0  0  0  0  0  0  0  0  0  0  0  0
   -2.0486    1.6932   -0.1637 H   0  0  0  0  0  0  0  0  0  0  0  0
    2.6725   -1.5628   -2.4464 H   0  0  0  0  0  0  0  0  0  0  0  0
    4.8984   -1.1839   -1.3844 H   0  0  0  0  0  0  0  0  0  0  0  0
    3.0359    1.4172    1.5891 H   0  0  0  0  0  0  0  0  0  0  0  0
  1  2  1  0
  2  3  1  0
  3  4  1  0
  4  5  1  0
  5  6  1  0
  6  7  2  0
  6  8  1  0
  8  9  1  0
  9 10  2  0
 10 11  1  0
 11 12  1  0
 12 13  2  0
 12 14  1  0
 11 15  2  0
 15 16  1  0
 16 17  1  0
 17 18  2  0
 17  5  1  0
 16  8  2  0
  1 19  1  0
  1 20  1  0
  1 21  1  0
  2 22  1  0
  2 23  1  0
  3 24  1  0
  3 25  1  0
  4 26  1  0
  4 27  1  0
  9 28  1  0
 10 29  1  0
 15 30  1  0
M  CHG  2  12   1  14  -1
M  END
$$$$
