
     RDKit          3D

 18 18  0  0  0  0  0  0  0  0999 V2000
   -3.2423   -0.3586   -0.2633 N   0  0  0  0  0  0  0  0  0  0  0  0
   -2.3825    0.3729    0.5076 C   0  0  0  0  0  0  0  0  0  0  0  0
   -2.8046    1.1747    1.3304 O   0  0  0  0  0  0  0  0  0  0  0  0
   -0.9237    0.1873    0.2810 C   0  0  0  0  0  0  0  0  0  0  0  0
   -0.4009   -0.9753   -0.3028 C   0  0  0  0  0  0  0  0  0  0  0  0
    0.9799   -1.1087   -0.4897 C   0  0  0  0  0  0  0  0  0  0  0  0
    1.8388   -0.0769   -0.0843 C   0  0  0  0  0  0  0  0  0  0  0  0
    3.2879   -0.2165   -0.2808 N   0  0  0  0  0  0  0  0  0  0  0  0
    4.0135    0.7136    0.0974 O   0  0  0  0  0  0  0  0  0  0  0  0
    3.6975   -1.2560   -0.8168 O   0  0  0  0  0  0  0  0  0  0  0  0
    1.3263    1.0824    0.5114 C   0  0  0  0  0  0  0  0  0  0  0  0
   -0.0542    1.2075    0.6955 C   0  0  0  0  0  0  0  0  0  0  0  0
   -4.2227   -0.1209   -0.1711 H   0  0  0  0  0  0  0  0  0  0  0  0
   -2.9573   -0.8027   -1.1238 H   0  0  0  0  0  0  0  0  0  0  0  0
   -1.0490   -1.7980   -0.5930 H   0  0  0  0  0  0  0  0  0  0  0  0
    1.3679   -2.0205   -0.9409 H   0  0  0  0  0  0  0  0  0  0  0  0
    1.9792    1.8894    0.8388 H   0  0  0  0  0  0  0  0  0  0  0  0
   -0.4539    2.1063    1.1644 H   0  0  0  0  0  0  0  0  0  0  0  0
  1  2  1  0
  2  3  2  0
  2  4  1  0
  4  5  1  0
  5  6  2  0
  6  7  1  0
  7  8  1  0
  8  9  2  0
  8 10  1  0
  7 11  2  0
 11 12  1  0
 12  4  2  0
  1 13  1  0
  1 14  1  0
  5 15  1  0
  6 16  1  0
 11 17  1  0
 12 18  1  0
M  CHG  2   8   1  10  -1
M  END
$$$$
