
     RDKit          3D

 19 19  0  0  0  0  0  0  0  0999 V2000
   -2.4118   -0.9873    0.1195 C   0  0  0  0  0  0  0  0  0  0  0  0
   -0.9751   -0.5615   -0.0152 C   0  0  0  0  0  0  0  0  0  0  0  0
   -0.0553   -1.4477   -0.5996 C   0  0  0  0  0  0  0  0  0  0  0  0
    1.2914   -1.0960   -0.7425 C   0  0  0  0  0  0  0  0  0  0  0  0
    1.7354    0.1586   -0.3038 C   0  0  0  0  0  0  0  0  0  0  0  0
    3.1500    0.5227   -0.4559 N   0  0  0  0  0  0  0  0  0  0  0  0
    3.9205   -0.3368   -0.9050 O   0  0  0  0  0  0  0  0  0  0  0  0
    3.4850    1.6688   -0.1274 O   0  0  0  0  0  0  0  0  0  0  0  0
    0.8433    1.0687    0.2713 C   0  0  0  0  0  0  0  0  0  0  0  0
   -0.5040    0.7005    0.4001 C   0  0  0  0  0  0  0  0  0  0  0  0
   -1.4089    1.6809    0.9908 N   0  0  0  0  0  0  0  0  0  0  0  0
   -2.4439    1.9506    0.3687 O   0  0  0  0  0  0  0  0  0  0  0  0
   -1.0612    2.1865    2.0658 O   0  0  0  0  0  0  0  0  0  0  0  0
   -2.5156   -2.0715    0.0010 H   0  0  0  0  0  0  0  0  0  0  0  0
   -2.8012   -0.7408    1.1125 H   0  0  0  0  0  0  0  0  0  0  0  0
   -3.0242   -0.5046   -0.6482 H   0  0  0  0  0  0  0  0  0  0  0  0
   -0.3810   -2.4283   -0.9473 H   0  0  0  0  0  0  0  0  0  0  0  0
    1.9773   -1.8102   -1.1966 H   0  0  0  0  0  0  0  0  0  0  0  0
    1.1792    2.0473    0.6118 H   0  0  0  0  0  0  0  0  0  0  0  0
  1  2  1  0
  2  3  1  0
  3  4  2  0
  4  5  1  0
  5  6  1  0
  6  7  2  0
  6  8  1  0
  5  9  2  0
  9 10  1  0
 10 11  1  0
 11 12  2  0
 11 13  1  0
 10  2  2  0
  1 14  1  0
  1 15  1  0
  1 16  1  0
  3 17  1  0
  4 18  1  0
  9 19  1  0
M  CHG  4   6   1   8  -1  11   1  13  -1
M  END
$$$$
