
     RDKit          3D

 17 17  0  0  0  0  0  0  0  0999 V2000
    2.7161    1.6604    0.3142 O   0  0  0  0  0  0  0  0  0  0  0  0
    2.3752    0.4931    0.3052 C   0  0  0  0  0  0  0  0  0  0  0  0
    3.2618   -0.5042    0.4550 O   0  0  0  0  0  0  0  0  0  0  0  0
    0.9855    0.0053    0.1347 C   0  0  0  0  0  0  0  0  0  0  0  0
    0.6679   -1.3613    0.1486 C   0  0  0  0  0  0  0  0  0  0  0  0
   -0.6580   -1.7841   -0.0171 C   0  0  0  0  0  0  0  0  0  0  0  0
   -1.6803   -0.8486   -0.1953 C   0  0  0  0  0  0  0  0  0  0  0  0
   -3.2860   -1.4346   -0.4191 Cl  0  0  0  0  0  0  0  0  0  0  0  0
   -1.3488    0.5057   -0.2017 C   0  0  0  0  0  0  0  0  0  0  0  0
   -2.3756    1.5025   -0.3770 N   0  0  0  0  0  0  0  0  0  0  0  0
   -3.0955    1.7449    0.5992 O   0  0  0  0  0  0  0  0  0  0  0  0
   -2.4249    2.0629   -1.4789 O   0  0  0  0  0  0  0  0  0  0  0  0
   -0.0301    0.9502   -0.0432 C   0  0  0  0  0  0  0  0  0  0  0  0
    4.1244   -0.0472    0.5550 H   0  0  0  0  0  0  0  0  0  0  0  0
    1.4473   -2.1094    0.2859 H   0  0  0  0  0  0  0  0  0  0  0  0
   -0.8817   -2.8496   -0.0082 H   0  0  0  0  0  0  0  0  0  0  0  0
    0.2028    2.0141   -0.0572 H   0  0  0  0  0  0  0  0  0  0  0  0
  1  2  2  0
  2  3  1  0
  2  4  1  0
  4  5  1  0
  5  6  2  0
  6  7  1  0
  7  8  1  0
  7  9  2  0
  9 10  1  0
 10 11  2  0
 10 12  1  0
  9 13  1  0
 13  4  2  0
  3 14  1  0
  5 15  1  0
  6 16  1  0
 13 17  1  0
M  CHG  2  10   1  12  -1
M  END
$$$$
