
     RDKit          3D

 46 47  0  0  0  0  0  0  0  0999 V2000
   -4.2321    2.0424    0.8559 C   0  0  0  0  0  0  0  0  0  0  0  0
   -2.7128    2.1451    0.7994 C   0  0  0  0  0  0  0  0  0  0  0  0
   -2.0363    1.3472   -0.3366 C   0  0  0  0  0  0  0  0  0  0  0  0
   -2.4413    1.8674   -1.7231 C   0  0  0  0  0  0  0  0  0  0  0  0
   -2.1925   -0.1604   -0.1460 C   0  0  0  0  0  0  0  0  0  0  0  0
   -3.1901   -0.8873   -0.8254 C   0  0  0  0  0  0  0  0  0  0  0  0
   -3.3475   -2.2707   -0.6196 C   0  0  0  0  0  0  0  0  0  0  0  0
   -4.4008   -2.9961   -1.3453 N   0  0  0  0  0  0  0  0  0  0  0  0
   -4.5871   -4.1833   -1.0478 O   0  0  0  0  0  0  0  0  0  0  0  0
   -5.0395   -2.3740   -2.2047 O   0  0  0  0  0  0  0  0  0  0  0  0
   -2.5305   -2.9599    0.2804 C   0  0  0  0  0  0  0  0  0  0  0  0
   -1.5452   -2.2448    0.9695 C   0  0  0  0  0  0  0  0  0  0  0  0
   -0.7399   -2.9626    1.9482 N   0  0  0  0  0  0  0  0  0  0  0  0
   -0.3655   -4.1013    1.6409 O   0  0  0  0  0  0  0  0  0  0  0  0
   -0.5164   -2.3982    3.0259 O   0  0  0  0  0  0  0  0  0  0  0  0
   -1.3564   -0.8693    0.7463 C   0  0  0  0  0  0  0  0  0  0  0  0
   -0.3579   -0.1587    1.4275 O   0  0  0  0  0  0  0  0  0  0  0  0
    0.8758   -0.2324    0.7967 C   0  0  0  0  0  0  0  0  0  0  0  0
    1.1195   -0.8421   -0.2374 O   0  0  0  0  0  0  0  0  0  0  0  0
    1.7815    0.5311    1.5191 O   0  0  0  0  0  0  0  0  0  0  0  0
    3.0410    0.6228    0.9147 C   0  0  0  0  0  0  0  0  0  0  0  0
    3.3422    1.8644    0.3414 C   0  0  0  0  0  0  0  0  0  0  0  0
    4.5759    2.0661   -0.2818 C   0  0  0  0  0  0  0  0  0  0  0  0
    5.5152    1.0246   -0.3193 C   0  0  0  0  0  0  0  0  0  0  0  0
    6.8129    1.2432   -0.9742 N   0  0  0  0  0  0  0  0  0  0  0  0
    7.6515    0.3358   -0.9008 O   0  0  0  0  0  0  0  0  0  0  0  0
    6.9873    2.3228   -1.5551 O   0  0  0  0  0  0  0  0  0  0  0  0
    5.2337   -0.2165    0.2696 C   0  0  0  0  0  0  0  0  0  0  0  0
    3.9910   -0.4112    0.8957 C   0  0  0  0  0  0  0  0  0  0  0  0
    3.7304   -1.7046    1.5291 N   0  0  0  0  0  0  0  0  0  0  0  0
    4.3714   -2.6790    1.1137 O   0  0  0  0  0  0  0  0  0  0  0  0
    2.9018   -1.7426    2.4464 O   0  0  0  0  0  0  0  0  0  0  0  0
   -4.6128    2.6451    1.6873 H   0  0  0  0  0  0  0  0  0  0  0  0
   -4.6972    2.4166   -0.0603 H   0  0  0  0  0  0  0  0  0  0  0  0
   -4.5611    1.0124    1.0194 H   0  0  0  0  0  0  0  0  0  0  0  0
   -2.4444    3.2040    0.6941 H   0  0  0  0  0  0  0  0  0  0  0  0
   -2.3101    1.8235    1.7679 H   0  0  0  0  0  0  0  0  0  0  0  0
   -0.9619    1.5661   -0.2737 H   0  0  0  0  0  0  0  0  0  0  0  0
   -1.9098    1.3235   -2.5121 H   0  0  0  0  0  0  0  0  0  0  0  0
   -2.1847    2.9281   -1.8212 H   0  0  0  0  0  0  0  0  0  0  0  0
   -3.5136    1.7723   -1.9170 H   0  0  0  0  0  0  0  0  0  0  0  0
   -3.8624   -0.3750   -1.5123 H   0  0  0  0  0  0  0  0  0  0  0  0
   -2.6605   -4.0274    0.4546 H   0  0  0  0  0  0  0  0  0  0  0  0
    2.6170    2.6754    0.3745 H   0  0  0  0  0  0  0  0  0  0  0  0
    4.7906    3.0361   -0.7290 H   0  0  0  0  0  0  0  0  0  0  0  0
    5.9716   -1.0184    0.2473 H   0  0  0  0  0  0  0  0  0  0  0  0
  1  2  1  0
  2  3  1  0
  3  4  1  0
  3  5  1  0
  5  6  2  0
  6  7  1  0
  7  8  1  0
  8  9  2  0
  8 10  1  0
  7 11  2  0
 11 12  1  0
 12 13  1  0
 13 14  2  0
 13 15  1  0
 12 16  2  0
 16 17  1  0
 17 18  1  0
 18 19  2  0
 18 20  1  0
 20 21  1  0
 21 22  1  0
 22 23  2  0
 23 24  1  0
 24 25  1  0
 25 26  2  0
 25 27  1  0
 24 28  2  0
 28 29  1  0
 29 30  1  0
 30 31  2  0
 30 32  1  0
 16  5  1  0
 29 21  2  0
  1 33  1  0
  1 34  1  0
  1 35  1  0
  2 36  1  0
  2 37  1  0
  3 38  1  0
  4 39  1  0
  4 40  1  0
  4 41  1  0
  6 42  1  0
 11 43  1  0
 22 44  1  0
 23 45  1  0
 28 46  1  0
M  CHG  8   8   1  10  -1  13   1  15  -1  25   1  27  -1  30   1  32  -1
M  END
$$$$
