
     RDKit          3D

 22 23  0  0  0  0  0  0  0  0999 V2000
    5.7275    0.0991    0.3424 N   0  0  0  0  0  0  0  0  0  0  0  0
    4.3945    0.0120    0.5162 C   0  0  0  0  0  0  0  0  0  0  0  0
    3.8087   -0.2428    1.6620 N   0  0  0  0  0  0  0  0  0  0  0  0
    2.4331   -0.2650    1.5587 N   0  0  0  0  0  0  0  0  0  0  0  0
    2.0058   -0.0275    0.3317 C   0  0  0  0  0  0  0  0  0  0  0  0
    0.6586    0.0180   -0.1239 C   0  0  0  0  0  0  0  0  0  0  0  0
   -0.3563   -0.2049    0.7260 C   0  0  0  0  0  0  0  0  0  0  0  0
   -1.7059   -0.1618    0.2809 C   0  0  0  0  0  0  0  0  0  0  0  0
   -2.8690   -0.3749    1.0193 C   0  0  0  0  0  0  0  0  0  0  0  0
   -3.9806   -0.2276    0.1519 C   0  0  0  0  0  0  0  0  0  0  0  0
   -3.4373    0.0681   -1.0708 C   0  0  0  0  0  0  0  0  0  0  0  0
   -4.0352    0.3274   -2.3415 N   0  0  0  0  0  0  0  0  0  0  0  0
   -5.2724    0.2841   -2.3833 O   0  0  0  0  0  0  0  0  0  0  0  0
   -3.2858    0.5737   -3.2952 O   0  0  0  0  0  0  0  0  0  0  0  0
   -2.0831    0.1128   -1.0189 O   0  0  0  0  0  0  0  0  0  0  0  0
    3.3005    0.2549   -0.7815 S   0  0  0  0  0  0  0  0  0  0  0  0
    6.0619    0.6519   -0.4377 H   0  0  0  0  0  0  0  0  0  0  0  0
    6.2663    0.2279    1.1927 H   0  0  0  0  0  0  0  0  0  0  0  0
    0.4705    0.2354   -1.1720 H   0  0  0  0  0  0  0  0  0  0  0  0
   -0.1692   -0.4245    1.7751 H   0  0  0  0  0  0  0  0  0  0  0  0
   -2.9008   -0.6121    2.0754 H   0  0  0  0  0  0  0  0  0  0  0  0
   -5.0315   -0.3242    0.3883 H   0  0  0  0  0  0  0  0  0  0  0  0
  1  2  1  0
  2  3  2  0
  3  4  1  0
  4  5  2  0
  5  6  1  0
  6  7  2  0
  7  8  1  0
  8  9  2  0
  9 10  1  0
 10 11  2  0
 11 12  1  0
 12 13  2  0
 12 14  1  0
 11 15  1  0
  5 16  1  0
 16  2  1  0
 15  8  1  0
  1 17  1  0
  1 18  1  0
  6 19  1  0
  7 20  1  0
  9 21  1  0
 10 22  1  0
M  CHG  2  12   1  14  -1
M  END
$$$$
