
     RDKit          3D

 26 26  0  0  0  0  0  0  0  0999 V2000
   -2.4659    0.0877   -1.4099 C   0  0  0  0  0  0  0  0  0  0  0  0
   -1.8467    0.5984   -0.1062 C   0  0  0  0  0  0  0  0  0  0  0  0
   -2.6112    0.0878    1.1181 C   0  0  0  0  0  0  0  0  0  0  0  0
   -0.3486    0.3187   -0.0201 C   0  0  0  0  0  0  0  0  0  0  0  0
    0.5252    1.4240    0.0301 C   0  0  0  0  0  0  0  0  0  0  0  0
    1.9129    1.2406    0.1099 C   0  0  0  0  0  0  0  0  0  0  0  0
    2.7995    2.4122    0.1608 N   0  0  0  0  0  0  0  0  0  0  0  0
    4.0182    2.2050    0.2308 O   0  0  0  0  0  0  0  0  0  0  0  0
    2.2750    3.5335    0.1306 O   0  0  0  0  0  0  0  0  0  0  0  0
    2.4604   -0.0449    0.1414 C   0  0  0  0  0  0  0  0  0  0  0  0
    1.6003   -1.1532    0.0920 C   0  0  0  0  0  0  0  0  0  0  0  0
    2.1958   -2.4953    0.1263 N   0  0  0  0  0  0  0  0  0  0  0  0
    3.4283   -2.5828    0.1971 O   0  0  0  0  0  0  0  0  0  0  0  0
    1.4239   -3.4660    0.0821 O   0  0  0  0  0  0  0  0  0  0  0  0
    0.2031   -0.9785    0.0117 C   0  0  0  0  0  0  0  0  0  0  0  0
   -0.6828   -2.0218   -0.0391 O   0  0  0  0  0  0  0  0  0  0  0  0
   -1.9153    0.4652   -2.2786 H   0  0  0  0  0  0  0  0  0  0  0  0
   -2.4756   -1.0047   -1.4694 H   0  0  0  0  0  0  0  0  0  0  0  0
   -3.5035    0.4282   -1.4981 H   0  0  0  0  0  0  0  0  0  0  0  0
   -1.9844    1.6886   -0.1141 H   0  0  0  0  0  0  0  0  0  0  0  0
   -2.1637    0.4654    2.0442 H   0  0  0  0  0  0  0  0  0  0  0  0
   -2.6276   -1.0046    1.1763 H   0  0  0  0  0  0  0  0  0  0  0  0
   -3.6521    0.4283    1.0869 H   0  0  0  0  0  0  0  0  0  0  0  0
    0.1110    2.4326    0.0062 H   0  0  0  0  0  0  0  0  0  0  0  0
    3.5395   -0.1807    0.2034 H   0  0  0  0  0  0  0  0  0  0  0  0
   -0.2157   -2.8837   -0.0122 H   0  0  0  0  0  0  0  0  0  0  0  0
  1  2  1  0
  2  3  1  0
  2  4  1  0
  4  5  2  0
  5  6  1  0
  6  7  1  0
  7  8  2  0
  7  9  1  0
  6 10  2  0
 10 11  1  0
 11 12  1  0
 12 13  2  0
 12 14  1  0
 11 15  2  0
 15 16  1  0
 15  4  1  0
  1 17  1  0
  1 18  1  0
  1 19  1  0
  2 20  1  0
  3 21  1  0
  3 22  1  0
  3 23  1  0
  5 24  1  0
 10 25  1  0
 16 26  1  0
M  CHG  4   7   1   9  -1  12   1  14  -1
M  END
$$$$
