
     RDKit          3D

 43 44  0  0  0  0  0  0  0  0999 V2000
    6.5358    2.3515    0.6874 C   0  0  0  0  0  0  0  0  0  0  0  0
    6.8196    0.8855    0.9560 C   0  0  0  0  0  0  0  0  0  0  0  0
    6.2126    0.0694   -0.0565 O   0  0  0  0  0  0  0  0  0  0  0  0
    4.9070   -0.2647    0.1561 C   0  0  0  0  0  0  0  0  0  0  0  0
    4.2472    0.0479    1.1396 O   0  0  0  0  0  0  0  0  0  0  0  0
    4.4006   -1.1149   -1.0013 C   0  0  0  0  0  0  0  0  0  0  0  0
    2.9976   -1.3803   -0.9118 O   0  0  0  0  0  0  0  0  0  0  0  0
    2.2214   -0.3198   -1.2376 C   0  0  0  0  0  0  0  0  0  0  0  0
    2.6003    0.7777   -1.6062 O   0  0  0  0  0  0  0  0  0  0  0  0
    0.8106   -0.6522   -0.9690 C   0  0  0  0  0  0  0  0  0  0  0  0
    0.0556    0.2932   -0.2615 C   0  0  0  0  0  0  0  0  0  0  0  0
   -1.2782    0.0309    0.0711 C   0  0  0  0  0  0  0  0  0  0  0  0
   -1.9108    1.0271    0.7852 O   0  0  0  0  0  0  0  0  0  0  0  0
   -3.2841    1.0606    0.7638 C   0  0  0  0  0  0  0  0  0  0  0  0
   -3.9512    0.6660    1.9262 C   0  0  0  0  0  0  0  0  0  0  0  0
   -5.3458    0.7120    1.9798 C   0  0  0  0  0  0  0  0  0  0  0  0
   -6.0872    1.1639    0.8763 C   0  0  0  0  0  0  0  0  0  0  0  0
   -7.5944    1.2389    0.9388 C   0  0  0  0  0  0  0  0  0  0  0  0
   -8.0334    2.4563    1.3571 F   0  0  0  0  0  0  0  0  0  0  0  0
   -8.1855    1.0177   -0.2675 F   0  0  0  0  0  0  0  0  0  0  0  0
   -8.1378    0.3275    1.7921 F   0  0  0  0  0  0  0  0  0  0  0  0
   -5.4028    1.5918   -0.2746 C   0  0  0  0  0  0  0  0  0  0  0  0
   -4.0069    1.5471   -0.3302 C   0  0  0  0  0  0  0  0  0  0  0  0
   -3.2263    2.1175   -1.7588 Cl  0  0  0  0  0  0  0  0  0  0  0  0
   -1.8613   -1.1904   -0.2871 C   0  0  0  0  0  0  0  0  0  0  0  0
   -1.1239   -2.1327   -1.0091 C   0  0  0  0  0  0  0  0  0  0  0  0
    0.2054   -1.8503   -1.3538 C   0  0  0  0  0  0  0  0  0  0  0  0
    0.9164   -2.8179   -2.1681 N   0  0  0  0  0  0  0  0  0  0  0  0
    1.4694   -2.4004   -3.1937 O   0  0  0  0  0  0  0  0  0  0  0  0
    0.8841   -3.9985   -1.7965 O   0  0  0  0  0  0  0  0  0  0  0  0
    6.8736    2.6309   -0.3160 H   0  0  0  0  0  0  0  0  0  0  0  0
    7.0435    2.9853    1.4200 H   0  0  0  0  0  0  0  0  0  0  0  0
    5.4619    2.5587    0.7308 H   0  0  0  0  0  0  0  0  0  0  0  0
    6.4887    0.5889    1.9579 H   0  0  0  0  0  0  0  0  0  0  0  0
    7.8985    0.7049    0.9076 H   0  0  0  0  0  0  0  0  0  0  0  0
    4.9137   -2.0808   -0.9600 H   0  0  0  0  0  0  0  0  0  0  0  0
    4.6390   -0.6354   -1.9576 H   0  0  0  0  0  0  0  0  0  0  0  0
    0.5086    1.2376    0.0394 H   0  0  0  0  0  0  0  0  0  0  0  0
   -3.3841    0.3234    2.7888 H   0  0  0  0  0  0  0  0  0  0  0  0
   -5.8546    0.3981    2.8912 H   0  0  0  0  0  0  0  0  0  0  0  0
   -5.9649    1.9692   -1.1284 H   0  0  0  0  0  0  0  0  0  0  0  0
   -2.8871   -1.4283   -0.0177 H   0  0  0  0  0  0  0  0  0  0  0  0
   -1.5913   -3.0712   -1.3025 H   0  0  0  0  0  0  0  0  0  0  0  0
  1  2  1  0
  2  3  1  0
  3  4  1  0
  4  5  2  0
  4  6  1  0
  6  7  1  0
  7  8  1  0
  8  9  2  0
  8 10  1  0
 10 11  1  0
 11 12  2  0
 12 13  1  0
 13 14  1  0
 14 15  1  0
 15 16  2  0
 16 17  1  0
 17 18  1  0
 18 19  1  0
 18 20  1  0
 18 21  1  0
 17 22  2  0
 22 23  1  0
 23 24  1  0
 12 25  1  0
 25 26  2  0
 26 27  1  0
 27 28  1  0
 28 29  2  0
 28 30  1  0
 27 10  2  0
 23 14  2  0
  1 31  1  0
  1 32  1  0
  1 33  1  0
  2 34  1  0
  2 35  1  0
  6 36  1  0
  6 37  1  0
 11 38  1  0
 15 39  1  0
 16 40  1  0
 22 41  1  0
 25 42  1  0
 26 43  1  0
M  CHG  2  28   1  30  -1
M  END
$$$$
