
     RDKit          3D

 19 19  0  0  0  0  0  0  0  0999 V2000
   -2.3480   -0.7950   -0.2092 C   0  0  0  0  0  0  0  0  0  0  0  0
   -1.0862    0.0174   -0.1013 C   0  0  0  0  0  0  0  0  0  0  0  0
   -1.1697    1.4204   -0.1293 C   0  0  0  0  0  0  0  0  0  0  0  0
   -0.0235    2.2162   -0.0199 C   0  0  0  0  0  0  0  0  0  0  0  0
    1.2336    1.6267    0.1074 C   0  0  0  0  0  0  0  0  0  0  0  0
    1.3345    0.2304    0.1187 C   0  0  0  0  0  0  0  0  0  0  0  0
    2.6594   -0.3538    0.2001 N   0  0  0  0  0  0  0  0  0  0  0  0
    2.9563   -1.1946   -0.6562 O   0  0  0  0  0  0  0  0  0  0  0  0
    3.4069    0.0689    1.0905 O   0  0  0  0  0  0  0  0  0  0  0  0
    0.1919   -0.5670    0.0133 C   0  0  0  0  0  0  0  0  0  0  0  0
    0.3152   -2.0087    0.0949 N   0  0  0  0  0  0  0  0  0  0  0  0
    0.7380   -2.4666    1.1634 O   0  0  0  0  0  0  0  0  0  0  0  0
   -0.0402   -2.6644   -0.8914 O   0  0  0  0  0  0  0  0  0  0  0  0
   -2.4106   -1.2686   -1.1937 H   0  0  0  0  0  0  0  0  0  0  0  0
   -3.2367   -0.1673   -0.0820 H   0  0  0  0  0  0  0  0  0  0  0  0
   -2.3856   -1.5613    0.5717 H   0  0  0  0  0  0  0  0  0  0  0  0
   -2.1384    1.9108   -0.2287 H   0  0  0  0  0  0  0  0  0  0  0  0
   -0.1157    3.3012   -0.0361 H   0  0  0  0  0  0  0  0  0  0  0  0
    2.1189    2.2554    0.1878 H   0  0  0  0  0  0  0  0  0  0  0  0
  1  2  1  0
  2  3  2  0
  3  4  1  0
  4  5  2  0
  5  6  1  0
  6  7  1  0
  7  8  2  0
  7  9  1  0
  6 10  2  0
 10 11  1  0
 11 12  2  0
 11 13  1  0
 10  2  1  0
  1 14  1  0
  1 15  1  0
  1 16  1  0
  3 17  1  0
  4 18  1  0
  5 19  1  0
M  CHG  4   7   1   9  -1  11   1  13  -1
M  END
$$$$
