
     RDKit          3D

 37 37  0  0  0  0  0  0  0  0999 V2000
    3.7589    0.0420   -0.5284 C   0  0  0  0  0  0  0  0  0  0  0  0
    2.2732    0.0344   -0.2427 C   0  0  0  0  0  0  0  0  0  0  0  0
    1.5411    1.2385   -0.2171 C   0  0  0  0  0  0  0  0  0  0  0  0
    2.2689    2.5620   -0.3748 C   0  0  0  0  0  0  0  0  0  0  0  0
    0.1159    1.1900   -0.0831 C   0  0  0  0  0  0  0  0  0  0  0  0
   -0.5311    2.4938   -0.0408 N   0  0  0  0  0  0  0  0  0  0  0  0
   -0.6559    3.0945   -1.1172 O   0  0  0  0  0  0  0  0  0  0  0  0
   -0.8607    2.9200    1.0732 O   0  0  0  0  0  0  0  0  0  0  0  0
   -0.6435   -0.0108    0.0598 C   0  0  0  0  0  0  0  0  0  0  0  0
   -2.2150   -0.0507    0.0911 C   0  0  0  0  0  0  0  0  0  0  0  0
   -2.9093    1.0485   -0.7642 C   0  0  0  0  0  0  0  0  0  0  0  0
   -2.8426   -1.3553   -0.4801 C   0  0  0  0  0  0  0  0  0  0  0  0
   -2.6977    0.1081    1.5484 C   0  0  0  0  0  0  0  0  0  0  0  0
    0.1814   -1.1685    0.1955 C   0  0  0  0  0  0  0  0  0  0  0  0
   -0.3936   -2.4600    0.5444 N   0  0  0  0  0  0  0  0  0  0  0  0
   -0.4783   -3.3007   -0.3616 O   0  0  0  0  0  0  0  0  0  0  0  0
   -0.7065   -2.6324    1.7292 O   0  0  0  0  0  0  0  0  0  0  0  0
    1.6079   -1.1687    0.0673 C   0  0  0  0  0  0  0  0  0  0  0  0
    2.4081   -2.4507    0.2174 C   0  0  0  0  0  0  0  0  0  0  0  0
    4.0784   -0.8808   -1.0231 H   0  0  0  0  0  0  0  0  0  0  0  0
    4.0306    0.8402   -1.2265 H   0  0  0  0  0  0  0  0  0  0  0  0
    4.3214    0.1675    0.4016 H   0  0  0  0  0  0  0  0  0  0  0  0
    2.3332    2.8276   -1.4344 H   0  0  0  0  0  0  0  0  0  0  0  0
    3.2786    2.5172    0.0458 H   0  0  0  0  0  0  0  0  0  0  0  0
    1.7823    3.3752    0.1714 H   0  0  0  0  0  0  0  0  0  0  0  0
   -2.9047    2.0294   -0.2844 H   0  0  0  0  0  0  0  0  0  0  0  0
   -3.9768    0.8394   -0.9102 H   0  0  0  0  0  0  0  0  0  0  0  0
   -2.4590    1.1231   -1.7602 H   0  0  0  0  0  0  0  0  0  0  0  0
   -3.9190   -1.2446   -0.6639 H   0  0  0  0  0  0  0  0  0  0  0  0
   -2.3824   -1.6350   -1.4342 H   0  0  0  0  0  0  0  0  0  0  0  0
   -2.7874   -2.1957    0.2149 H   0  0  0  0  0  0  0  0  0  0  0  0
   -3.7925    0.0846    1.6051 H   0  0  0  0  0  0  0  0  0  0  0  0
   -2.3218   -0.6907    2.1943 H   0  0  0  0  0  0  0  0  0  0  0  0
   -2.3700    1.0544    1.9882 H   0  0  0  0  0  0  0  0  0  0  0  0
    1.9632   -3.1397    0.9412 H   0  0  0  0  0  0  0  0  0  0  0  0
    3.4111   -2.2540    0.6094 H   0  0  0  0  0  0  0  0  0  0  0  0
    2.4935   -2.9519   -0.7515 H   0  0  0  0  0  0  0  0  0  0  0  0
  1  2  1  0
  2  3  1  0
  3  4  1  0
  3  5  2  0
  5  6  1  0
  6  7  2  0
  6  8  1  0
  5  9  1  0
  9 10  1  0
 10 11  1  0
 10 12  1  0
 10 13  1  0
  9 14  2  0
 14 15  1  0
 15 16  2  0
 15 17  1  0
 14 18  1  0
 18 19  1  0
 18  2  2  0
  1 20  1  0
  1 21  1  0
  1 22  1  0
  4 23  1  0
  4 24  1  0
  4 25  1  0
 11 26  1  0
 11 27  1  0
 11 28  1  0
 12 29  1  0
 12 30  1  0
 12 31  1  0
 13 32  1  0
 13 33  1  0
 13 34  1  0
 19 35  1  0
 19 36  1  0
 19 37  1  0
M  CHG  4   6   1   8  -1  15   1  17  -1
M  END
$$$$
