
     RDKit          3D

 21 21  0  0  0  0  0  0  0  0999 V2000
   -3.2539   -0.4957    0.2006 C   0  0  0  0  0  0  0  0  0  0  0  0
   -2.5890    0.7164   -0.4280 C   0  0  0  0  0  0  0  0  0  0  0  0
   -1.4685    1.1389    0.3479 O   0  0  0  0  0  0  0  0  0  0  0  0
   -0.2381    0.6097    0.0810 C   0  0  0  0  0  0  0  0  0  0  0  0
    0.0423   -0.4264   -0.8117 C   0  0  0  0  0  0  0  0  0  0  0  0
    1.3578   -0.8755   -0.9825 C   0  0  0  0  0  0  0  0  0  0  0  0
    2.3953   -0.2832   -0.2514 C   0  0  0  0  0  0  0  0  0  0  0  0
    3.7743   -0.7537   -0.4299 N   0  0  0  0  0  0  0  0  0  0  0  0
    4.6627   -0.2043    0.2371 O   0  0  0  0  0  0  0  0  0  0  0  0
    3.9694   -1.6731   -1.2380 O   0  0  0  0  0  0  0  0  0  0  0  0
    2.1246    0.7517    0.6491 C   0  0  0  0  0  0  0  0  0  0  0  0
    0.8074    1.1894    0.8096 C   0  0  0  0  0  0  0  0  0  0  0  0
   -3.5326   -0.2843    1.2383 H   0  0  0  0  0  0  0  0  0  0  0  0
   -4.1540   -0.7741   -0.3550 H   0  0  0  0  0  0  0  0  0  0  0  0
   -2.5789   -1.3563    0.2235 H   0  0  0  0  0  0  0  0  0  0  0  0
   -2.3348    0.5558   -1.4814 H   0  0  0  0  0  0  0  0  0  0  0  0
   -3.3039    1.5471   -0.4158 H   0  0  0  0  0  0  0  0  0  0  0  0
   -0.7379   -0.9153   -1.3860 H   0  0  0  0  0  0  0  0  0  0  0  0
    1.5523   -1.6849   -1.6837 H   0  0  0  0  0  0  0  0  0  0  0  0
    2.9149    1.2239    1.2285 H   0  0  0  0  0  0  0  0  0  0  0  0
    0.5904    1.9938    1.5101 H   0  0  0  0  0  0  0  0  0  0  0  0
  1  2  1  0
  2  3  1  0
  3  4  1  0
  4  5  1  0
  5  6  2  0
  6  7  1  0
  7  8  1  0
  8  9  2  0
  8 10  1  0
  7 11  2  0
 11 12  1  0
 12  4  2  0
  1 13  1  0
  1 14  1  0
  1 15  1  0
  2 16  1  0
  2 17  1  0
  5 18  1  0
  6 19  1  0
 11 20  1  0
 12 21  1  0
M  CHG  2   8   1  10  -1
M  END
$$$$
