
     RDKit          3D

 29 29  0  0  0  0  0  0  0  0999 V2000
   -2.2195   -2.7539   -0.5314 C   0  0  0  0  0  0  0  0  0  0  0  0
   -2.5662   -1.3290   -0.9112 C   0  0  0  0  0  0  0  0  0  0  0  0
   -2.2836   -0.4861    0.1938 O   0  0  0  0  0  0  0  0  0  0  0  0
   -2.0808    1.0987   -0.0739 P   0  0  0  0  0  0  0  0  0  0  0  0
   -3.5747    2.0111   -0.9076 S   0  0  0  0  0  0  0  0  0  0  0  0
   -1.6754    1.6166    1.4067 O   0  0  0  0  0  0  0  0  0  0  0  0
   -1.3216    2.9759    1.5713 C   0  0  0  0  0  0  0  0  0  0  0  0
   -0.6856    1.1638   -0.8870 O   0  0  0  0  0  0  0  0  0  0  0  0
    0.5139    0.6053   -0.5476 C   0  0  0  0  0  0  0  0  0  0  0  0
    1.5485    0.8130   -1.4652 C   0  0  0  0  0  0  0  0  0  0  0  0
    2.8226    0.2895   -1.2310 C   0  0  0  0  0  0  0  0  0  0  0  0
    3.0568   -0.4479   -0.0649 C   0  0  0  0  0  0  0  0  0  0  0  0
    4.3915   -1.0034    0.1917 N   0  0  0  0  0  0  0  0  0  0  0  0
    5.2748   -0.7927   -0.6514 O   0  0  0  0  0  0  0  0  0  0  0  0
    4.5553   -1.6499    1.2360 O   0  0  0  0  0  0  0  0  0  0  0  0
    2.0251   -0.6591    0.8587 C   0  0  0  0  0  0  0  0  0  0  0  0
    0.7533   -0.1291    0.6127 C   0  0  0  0  0  0  0  0  0  0  0  0
   -1.1592   -2.8359   -0.2701 H   0  0  0  0  0  0  0  0  0  0  0  0
   -2.4338   -3.4406   -1.3550 H   0  0  0  0  0  0  0  0  0  0  0  0
   -2.7895   -3.0685    0.3490 H   0  0  0  0  0  0  0  0  0  0  0  0
   -1.9817   -1.0231   -1.7846 H   0  0  0  0  0  0  0  0  0  0  0  0
   -3.6306   -1.2549   -1.1534 H   0  0  0  0  0  0  0  0  0  0  0  0
   -2.2232    3.5919    1.6154 H   0  0  0  0  0  0  0  0  0  0  0  0
   -0.6774    3.3161    0.7561 H   0  0  0  0  0  0  0  0  0  0  0  0
   -0.7787    3.0822    2.5140 H   0  0  0  0  0  0  0  0  0  0  0  0
    1.3632    1.3867   -2.3715 H   0  0  0  0  0  0  0  0  0  0  0  0
    3.6110    0.4645   -1.9602 H   0  0  0  0  0  0  0  0  0  0  0  0
    2.1911   -1.2304    1.7705 H   0  0  0  0  0  0  0  0  0  0  0  0
   -0.0255   -0.3109    1.3484 H   0  0  0  0  0  0  0  0  0  0  0  0
  1  2  1  0
  2  3  1  0
  3  4  1  0
  4  5  2  0
  4  6  1  0
  6  7  1  0
  4  8  1  0
  8  9  1  0
  9 10  1  0
 10 11  2  0
 11 12  1  0
 12 13  1  0
 13 14  2  0
 13 15  1  0
 12 16  2  0
 16 17  1  0
 17  9  2  0
  1 18  1  0
  1 19  1  0
  1 20  1  0
  2 21  1  0
  2 22  1  0
  7 23  1  0
  7 24  1  0
  7 25  1  0
 10 26  1  0
 11 27  1  0
 16 28  1  0
 17 29  1  0
M  CHG  2  13   1  15  -1
M  END
$$$$
