
     RDKit          3D

 17 17  0  0  0  0  0  0  0  0999 V2000
   -1.8220   -1.1232   -0.2862 C   0  0  0  0  0  0  0  0  0  0  0  0
   -0.4468   -0.5499   -0.0885 C   0  0  0  0  0  0  0  0  0  0  0  0
    0.6555   -1.4191   -0.0588 C   0  0  0  0  0  0  0  0  0  0  0  0
    1.9527   -0.9303    0.1277 C   0  0  0  0  0  0  0  0  0  0  0  0
    2.1769    0.4366    0.2840 C   0  0  0  0  0  0  0  0  0  0  0  0
    1.1033    1.3235    0.2458 C   0  0  0  0  0  0  0  0  0  0  0  0
   -0.1955    0.8284    0.0509 C   0  0  0  0  0  0  0  0  0  0  0  0
   -1.2805    1.8034   -0.0001 N   0  0  0  0  0  0  0  0  0  0  0  0
   -1.3063    2.6660    0.8892 O   0  0  0  0  0  0  0  0  0  0  0  0
   -2.0875    1.7181   -0.9356 O   0  0  0  0  0  0  0  0  0  0  0  0
   -2.1570   -0.9612   -1.3152 H   0  0  0  0  0  0  0  0  0  0  0  0
   -2.5369   -0.6746    0.4109 H   0  0  0  0  0  0  0  0  0  0  0  0
   -1.8319   -2.2020   -0.0951 H   0  0  0  0  0  0  0  0  0  0  0  0
    0.5128   -2.4924   -0.1768 H   0  0  0  0  0  0  0  0  0  0  0  0
    2.7919   -1.6226    0.1527 H   0  0  0  0  0  0  0  0  0  0  0  0
    3.1879    0.8090    0.4321 H   0  0  0  0  0  0  0  0  0  0  0  0
    1.2836    2.3902    0.3631 H   0  0  0  0  0  0  0  0  0  0  0  0
  1  2  1  0
  2  3  2  0
  3  4  1  0
  4  5  2  0
  5  6  1  0
  6  7  2  0
  7  8  1  0
  8  9  2  0
  8 10  1  0
  7  2  1  0
  1 11  1  0
  1 12  1  0
  1 13  1  0
  3 14  1  0
  4 15  1  0
  5 16  1  0
  6 17  1  0
M  CHG  2   8   1  10  -1
M  END
$$$$
