
     RDKit          3D

 30 31  0  0  0  0  0  0  0  0999 V2000
    6.0923    1.1586    0.2099 O   0  0  0  0  0  0  0  0  0  0  0  0
    5.2449    0.6468    0.9552 N   0  0  0  0  0  0  0  0  0  0  0  0
    5.4135    0.4216    2.1620 O   0  0  0  0  0  0  0  0  0  0  0  0
    3.9467    0.2893    0.3686 C   0  0  0  0  0  0  0  0  0  0  0  0
    3.7049    0.5421   -0.9893 C   0  0  0  0  0  0  0  0  0  0  0  0
    2.4683    0.2011   -1.5421 C   0  0  0  0  0  0  0  0  0  0  0  0
    1.4789   -0.3709   -0.7394 C   0  0  0  0  0  0  0  0  0  0  0  0
    0.2952   -0.7139   -1.3530 O   0  0  0  0  0  0  0  0  0  0  0  0
   -0.8649   -0.3003   -0.7405 C   0  0  0  0  0  0  0  0  0  0  0  0
   -1.0757    1.0486   -0.4352 C   0  0  0  0  0  0  0  0  0  0  0  0
   -2.2943    1.4653    0.1147 C   0  0  0  0  0  0  0  0  0  0  0  0
   -3.3350    0.5485    0.3455 C   0  0  0  0  0  0  0  0  0  0  0  0
   -4.6411    1.0055    0.9551 C   0  0  0  0  0  0  0  0  0  0  0  0
   -5.7043    0.2614    0.5462 F   0  0  0  0  0  0  0  0  0  0  0  0
   -4.6249    0.9278    2.3127 F   0  0  0  0  0  0  0  0  0  0  0  0
   -4.9471    2.2964    0.6526 F   0  0  0  0  0  0  0  0  0  0  0  0
   -3.1283   -0.8036    0.0297 C   0  0  0  0  0  0  0  0  0  0  0  0
   -1.8997   -1.2090   -0.5122 C   0  0  0  0  0  0  0  0  0  0  0  0
   -1.7139   -2.6146   -0.8167 N   0  0  0  0  0  0  0  0  0  0  0  0
   -2.5626   -3.1461   -1.5450 O   0  0  0  0  0  0  0  0  0  0  0  0
   -0.7519   -3.1892   -0.2903 O   0  0  0  0  0  0  0  0  0  0  0  0
    1.7285   -0.6449    0.6090 C   0  0  0  0  0  0  0  0  0  0  0  0
    2.9629   -0.3077    1.1701 C   0  0  0  0  0  0  0  0  0  0  0  0
    4.4642    0.9929   -1.6254 H   0  0  0  0  0  0  0  0  0  0  0  0
    2.2768    0.3816   -2.5974 H   0  0  0  0  0  0  0  0  0  0  0  0
   -0.3022    1.7878   -0.6334 H   0  0  0  0  0  0  0  0  0  0  0  0
   -2.4346    2.5207    0.3520 H   0  0  0  0  0  0  0  0  0  0  0  0
   -3.9203   -1.5326    0.2034 H   0  0  0  0  0  0  0  0  0  0  0  0
    0.9791   -1.1373    1.2240 H   0  0  0  0  0  0  0  0  0  0  0  0
    3.1445   -0.5260    2.2207 H   0  0  0  0  0  0  0  0  0  0  0  0
  1  2  2  0
  2  3  1  0
  2  4  1  0
  4  5  1  0
  5  6  2  0
  6  7  1  0
  7  8  1  0
  8  9  1  0
  9 10  1  0
 10 11  2  0
 11 12  1  0
 12 13  1  0
 13 14  1  0
 13 15  1  0
 13 16  1  0
 12 17  2  0
 17 18  1  0
 18 19  1  0
 19 20  2  0
 19 21  1  0
  7 22  2  0
 22 23  1  0
 23  4  2  0
 18  9  2  0
  5 24  1  0
  6 25  1  0
 10 26  1  0
 11 27  1  0
 17 28  1  0
 22 29  1  0
 23 30  1  0
M  CHG  4   2   1   3  -1  19   1  21  -1
M  END
$$$$
