
     RDKit          3D

 16 16  0  0  0  0  0  0  0  0999 V2000
   -2.8160    0.0867   -0.2032 N   0  0  0  0  0  0  0  0  0  0  0  0
   -1.4146    0.0007   -0.1666 C   0  0  0  0  0  0  0  0  0  0  0  0
   -0.6564    1.1179   -0.5493 C   0  0  0  0  0  0  0  0  0  0  0  0
    0.7357    1.1260   -0.4099 C   0  0  0  0  0  0  0  0  0  0  0  0
    1.5971    2.5147   -0.9616 Cl  0  0  0  0  0  0  0  0  0  0  0  0
    1.3567    0.0143    0.1550 C   0  0  0  0  0  0  0  0  0  0  0  0
    2.7884   -0.0145    0.3214 N   0  0  0  0  0  0  0  0  0  0  0  0
    3.2629    0.6669    1.2379 O   0  0  0  0  0  0  0  0  0  0  0  0
    3.4209   -0.7571   -0.4398 O   0  0  0  0  0  0  0  0  0  0  0  0
    0.6313   -1.0996    0.5864 C   0  0  0  0  0  0  0  0  0  0  0  0
   -0.7546   -1.0883    0.4398 C   0  0  0  0  0  0  0  0  0  0  0  0
   -1.6479   -2.4610    0.9933 Cl  0  0  0  0  0  0  0  0  0  0  0  0
   -3.1979    0.6732   -0.9389 H   0  0  0  0  0  0  0  0  0  0  0  0
   -3.2798   -0.8187   -0.1407 H   0  0  0  0  0  0  0  0  0  0  0  0
   -1.1592    1.9921   -0.9588 H   0  0  0  0  0  0  0  0  0  0  0  0
    1.1335   -1.9533    1.0351 H   0  0  0  0  0  0  0  0  0  0  0  0
  1  2  1  0
  2  3  1  0
  3  4  2  0
  4  5  1  0
  4  6  1  0
  6  7  1  0
  7  8  2  0
  7  9  1  0
  6 10  2  0
 10 11  1  0
 11 12  1  0
 11  2  2  0
  1 13  1  0
  1 14  1  0
  3 15  1  0
 10 16  1  0
M  CHG  2   7   1   9  -1
M  END
$$$$
