
     RDKit          3D

 24 25  0  0  0  0  0  0  0  0999 V2000
   -1.2990   -2.0947   -1.9197 O   0  0  0  0  0  0  0  0  0  0  0  0
   -1.1632   -1.9486   -0.6971 N   0  0  0  0  0  0  0  0  0  0  0  0
   -0.7451   -2.8017    0.0965 O   0  0  0  0  0  0  0  0  0  0  0  0
   -1.5828   -0.6797   -0.1412 C   0  0  0  0  0  0  0  0  0  0  0  0
   -2.9581   -0.4893    0.0534 C   0  0  0  0  0  0  0  0  0  0  0  0
   -3.4022    0.7092    0.6053 C   0  0  0  0  0  0  0  0  0  0  0  0
   -2.4796    1.6958    0.9545 C   0  0  0  0  0  0  0  0  0  0  0  0
   -1.1092    1.4908    0.7503 C   0  0  0  0  0  0  0  0  0  0  0  0
   -0.6267    0.2943    0.1921 C   0  0  0  0  0  0  0  0  0  0  0  0
    0.8161    0.1241   -0.0225 C   0  0  0  0  0  0  0  0  0  0  0  0
    1.6809   -0.0862    1.0628 C   0  0  0  0  0  0  0  0  0  0  0  0
    3.0536   -0.2467    0.8615 C   0  0  0  0  0  0  0  0  0  0  0  0
    3.5801   -0.1965   -0.4271 C   0  0  0  0  0  0  0  0  0  0  0  0
    2.7360    0.0143   -1.5149 C   0  0  0  0  0  0  0  0  0  0  0  0
    1.3632    0.1750   -1.3143 C   0  0  0  0  0  0  0  0  0  0  0  0
   -3.6732   -1.2625   -0.2174 H   0  0  0  0  0  0  0  0  0  0  0  0
   -4.4648    0.8770    0.7655 H   0  0  0  0  0  0  0  0  0  0  0  0
   -2.8258    2.6331    1.3855 H   0  0  0  0  0  0  0  0  0  0  0  0
   -0.4123    2.2824    1.0243 H   0  0  0  0  0  0  0  0  0  0  0  0
    1.2870   -0.1377    2.0760 H   0  0  0  0  0  0  0  0  0  0  0  0
    3.7104   -0.4167    1.7108 H   0  0  0  0  0  0  0  0  0  0  0  0
    4.6479   -0.3259   -0.5842 H   0  0  0  0  0  0  0  0  0  0  0  0
    3.1449    0.0504   -2.5215 H   0  0  0  0  0  0  0  0  0  0  0  0
    0.7221    0.3398   -2.1787 H   0  0  0  0  0  0  0  0  0  0  0  0
  1  2  2  0
  2  3  1  0
  2  4  1  0
  4  5  2  0
  5  6  1  0
  6  7  2  0
  7  8  1  0
  8  9  2  0
  9 10  1  0
 10 11  2  0
 11 12  1  0
 12 13  2  0
 13 14  1  0
 14 15  2  0
  9  4  1  0
 15 10  1  0
  5 16  1  0
  6 17  1  0
  7 18  1  0
  8 19  1  0
 11 20  1  0
 12 21  1  0
 13 22  1  0
 14 23  1  0
 15 24  1  0
M  CHG  2   2   1   3  -1
M  END
$$$$
