
     RDKit          3D

 64 66  0  0  0  0  0  0  0  0999 V2000
   -4.9741    2.7094    1.7935 C   0  0  0  0  0  0  0  0  0  0  0  0
   -4.6278    3.0315    0.4513 O   0  0  0  0  0  0  0  0  0  0  0  0
   -5.6785    2.7558   -0.4818 C   0  0  0  0  0  0  0  0  0  0  0  0
   -5.7743    1.2753   -0.8597 C   0  0  0  0  0  0  0  0  0  0  0  0
   -4.5689    0.8662   -1.5280 O   0  0  0  0  0  0  0  0  0  0  0  0
   -3.6431    0.2401   -0.7579 C   0  0  0  0  0  0  0  0  0  0  0  0
   -3.7792   -0.0804    0.4135 O   0  0  0  0  0  0  0  0  0  0  0  0
   -2.3749    0.1141   -1.5127 C   0  0  0  0  0  0  0  0  0  0  0  0
   -2.2987   -0.3146   -2.7933 C   0  0  0  0  0  0  0  0  0  0  0  0
   -3.4465   -0.8983   -3.5748 C   0  0  0  0  0  0  0  0  0  0  0  0
   -1.0876   -0.2296   -3.4687 N   0  0  0  0  0  0  0  0  0  0  0  0
   -0.0051    0.5122   -3.0121 C   0  0  0  0  0  0  0  0  0  0  0  0
    1.1018    0.7453   -4.0092 C   0  0  0  0  0  0  0  0  0  0  0  0
    0.0096    0.9517   -1.7312 C   0  0  0  0  0  0  0  0  0  0  0  0
    1.0865    1.8472   -1.2373 C   0  0  0  0  0  0  0  0  0  0  0  0
    1.6362    2.7083   -1.9055 O   0  0  0  0  0  0  0  0  0  0  0  0
    1.3682    1.5404    0.0458 O   0  0  0  0  0  0  0  0  0  0  0  0
    2.5354    2.1354    0.6203 C   0  0  0  0  0  0  0  0  0  0  0  0
    3.2252    1.0295    1.3575 C   0  0  0  0  0  0  0  0  0  0  0  0
    4.4794    0.6202    1.1062 C   0  0  0  0  0  0  0  0  0  0  0  0
    5.0841   -0.5288    1.7899 C   0  0  0  0  0  0  0  0  0  0  0  0
    6.3548   -0.4096    2.3614 C   0  0  0  0  0  0  0  0  0  0  0  0
    6.9527   -1.5064    2.9884 C   0  0  0  0  0  0  0  0  0  0  0  0
    6.2896   -2.7332    3.0367 C   0  0  0  0  0  0  0  0  0  0  0  0
    5.0298   -2.8648    2.4571 C   0  0  0  0  0  0  0  0  0  0  0  0
    4.4311   -1.7671    1.8358 C   0  0  0  0  0  0  0  0  0  0  0  0
   -1.1286    0.5899   -0.7721 C   0  0  0  0  0  0  0  0  0  0  0  0
   -0.6850   -0.4491    0.2711 C   0  0  0  0  0  0  0  0  0  0  0  0
   -0.8500   -0.1800    1.6424 C   0  0  0  0  0  0  0  0  0  0  0  0
   -0.4257   -1.0909    2.6129 C   0  0  0  0  0  0  0  0  0  0  0  0
    0.1720   -2.2898    2.2317 C   0  0  0  0  0  0  0  0  0  0  0  0
    0.3278   -2.5760    0.8704 C   0  0  0  0  0  0  0  0  0  0  0  0
    0.9648   -3.8330    0.4660 N   0  0  0  0  0  0  0  0  0  0  0  0
    0.8508   -4.1859   -0.7162 O   0  0  0  0  0  0  0  0  0  0  0  0
    1.5872   -4.4670    1.3315 O   0  0  0  0  0  0  0  0  0  0  0  0
   -0.1008   -1.6702   -0.1096 C   0  0  0  0  0  0  0  0  0  0  0  0
   -5.8316    3.3064    2.1194 H   0  0  0  0  0  0  0  0  0  0  0  0
   -4.1183    2.9485    2.4318 H   0  0  0  0  0  0  0  0  0  0  0  0
   -5.1947    1.6431    1.9054 H   0  0  0  0  0  0  0  0  0  0  0  0
   -5.4427    3.3349   -1.3821 H   0  0  0  0  0  0  0  0  0  0  0  0
   -6.6370    3.1208   -0.0930 H   0  0  0  0  0  0  0  0  0  0  0  0
   -6.5937    1.1362   -1.5729 H   0  0  0  0  0  0  0  0  0  0  0  0
   -5.9912    0.6418    0.0066 H   0  0  0  0  0  0  0  0  0  0  0  0
   -4.2807   -1.2096   -2.9407 H   0  0  0  0  0  0  0  0  0  0  0  0
   -3.8150   -0.1723   -4.3065 H   0  0  0  0  0  0  0  0  0  0  0  0
   -3.1174   -1.7931   -4.1151 H   0  0  0  0  0  0  0  0  0  0  0  0
   -1.1056   -0.4402   -4.4651 H   0  0  0  0  0  0  0  0  0  0  0  0
    0.8973    1.6442   -4.5999 H   0  0  0  0  0  0  0  0  0  0  0  0
    2.0814    0.8451   -3.5322 H   0  0  0  0  0  0  0  0  0  0  0  0
    1.1848   -0.1031   -4.6976 H   0  0  0  0  0  0  0  0  0  0  0  0
    2.2157    2.9078    1.3275 H   0  0  0  0  0  0  0  0  0  0  0  0
    3.1924    2.5901   -0.1287 H   0  0  0  0  0  0  0  0  0  0  0  0
    2.6292    0.5273    2.1168 H   0  0  0  0  0  0  0  0  0  0  0  0
    5.0961    1.1153    0.3599 H   0  0  0  0  0  0  0  0  0  0  0  0
    6.8853    0.5388    2.3294 H   0  0  0  0  0  0  0  0  0  0  0  0
    7.9349   -1.4008    3.4394 H   0  0  0  0  0  0  0  0  0  0  0  0
    6.7577   -3.5879    3.5205 H   0  0  0  0  0  0  0  0  0  0  0  0
    4.5122   -3.8208    2.4801 H   0  0  0  0  0  0  0  0  0  0  0  0
    3.4563   -1.8910    1.3749 H   0  0  0  0  0  0  0  0  0  0  0  0
   -1.4007    1.5222   -0.2545 H   0  0  0  0  0  0  0  0  0  0  0  0
   -1.3204    0.7481    1.9636 H   0  0  0  0  0  0  0  0  0  0  0  0
   -0.5627   -0.8596    3.6668 H   0  0  0  0  0  0  0  0  0  0  0  0
    0.5020   -2.9869    2.9990 H   0  0  0  0  0  0  0  0  0  0  0  0
    0.0283   -1.9029   -1.1663 H   0  0  0  0  0  0  0  0  0  0  0  0
  1  2  1  0
  2  3  1  0
  3  4  1  0
  4  5  1  0
  5  6  1  0
  6  7  2  0
  6  8  1  0
  8  9  2  0
  9 10  1  0
  9 11  1  0
 11 12  1  0
 12 13  1  0
 12 14  2  0
 14 15  1  0
 15 16  2  0
 15 17  1  0
 17 18  1  0
 18 19  1  0
 19 20  2  0
 20 21  1  0
 21 22  2  0
 22 23  1  0
 23 24  2  0
 24 25  1  0
 25 26  2  0
 14 27  1  0
 27 28  1  0
 28 29  2  0
 29 30  1  0
 30 31  2  0
 31 32  1  0
 32 33  1  0
 33 34  2  0
 33 35  1  0
 32 36  2  0
 27  8  1  0
 36 28  1  0
 26 21  1  0
  1 37  1  0
  1 38  1  0
  1 39  1  0
  3 40  1  0
  3 41  1  0
  4 42  1  0
  4 43  1  0
 10 44  1  0
 10 45  1  0
 10 46  1  0
 11 47  1  0
 13 48  1  0
 13 49  1  0
 13 50  1  0
 18 51  1  0
 18 52  1  0
 19 53  1  0
 20 54  1  0
 22 55  1  0
 23 56  1  0
 24 57  1  0
 25 58  1  0
 26 59  1  0
 27 60  1  0
 29 61  1  0
 30 62  1  0
 31 63  1  0
 36 64  1  0
M  CHG  2  33   1  35  -1
M  END
$$$$
