
     RDKit          3D

 32 32  0  0  0  0  0  0  0  0999 V2000
   -2.0987    3.2744   -1.3199 C   0  0  0  0  0  0  0  0  0  0  0  0
   -2.1131    2.4128   -0.0738 C   0  0  0  0  0  0  0  0  0  0  0  0
   -1.1067    1.4220   -0.2009 O   0  0  0  0  0  0  0  0  0  0  0  0
   -1.0290    0.2547    0.9201 P   0  0  0  0  0  0  0  0  0  0  0  0
   -0.6437    0.8162    2.7366 S   0  0  0  0  0  0  0  0  0  0  0  0
   -2.4510   -0.4860    0.6877 O   0  0  0  0  0  0  0  0  0  0  0  0
   -2.6832   -1.7205    1.3463 C   0  0  0  0  0  0  0  0  0  0  0  0
   -3.9265   -2.3541    0.7568 C   0  0  0  0  0  0  0  0  0  0  0  0
   -0.0108   -0.7951    0.2380 O   0  0  0  0  0  0  0  0  0  0  0  0
    1.3349   -0.6278    0.0581 C   0  0  0  0  0  0  0  0  0  0  0  0
    1.9532    0.6241    0.0439 C   0  0  0  0  0  0  0  0  0  0  0  0
    3.3346    0.7232   -0.1549 C   0  0  0  0  0  0  0  0  0  0  0  0
    4.0959   -0.4374   -0.3458 C   0  0  0  0  0  0  0  0  0  0  0  0
    5.5449   -0.3314   -0.5570 N   0  0  0  0  0  0  0  0  0  0  0  0
    6.1832   -1.3832   -0.7003 O   0  0  0  0  0  0  0  0  0  0  0  0
    6.0411    0.8032   -0.5816 O   0  0  0  0  0  0  0  0  0  0  0  0
    3.4866   -1.6963   -0.3419 C   0  0  0  0  0  0  0  0  0  0  0  0
    2.1075   -1.7827   -0.1424 C   0  0  0  0  0  0  0  0  0  0  0  0
    1.3801   -3.3509   -0.1379 Cl  0  0  0  0  0  0  0  0  0  0  0  0
   -1.1181    3.7432   -1.4532 H   0  0  0  0  0  0  0  0  0  0  0  0
   -2.8597    4.0576   -1.2619 H   0  0  0  0  0  0  0  0  0  0  0  0
   -2.2846    2.6660   -2.2112 H   0  0  0  0  0  0  0  0  0  0  0  0
   -3.0931    1.9398    0.0414 H   0  0  0  0  0  0  0  0  0  0  0  0
   -1.9097    3.0295    0.8065 H   0  0  0  0  0  0  0  0  0  0  0  0
   -2.8285   -1.5388    2.4153 H   0  0  0  0  0  0  0  0  0  0  0  0
   -1.8258   -2.3871    1.2125 H   0  0  0  0  0  0  0  0  0  0  0  0
   -4.7902   -1.6912    0.8740 H   0  0  0  0  0  0  0  0  0  0  0  0
   -3.7995   -2.5247   -0.3174 H   0  0  0  0  0  0  0  0  0  0  0  0
   -4.1458   -3.3091    1.2424 H   0  0  0  0  0  0  0  0  0  0  0  0
    1.3905    1.5443    0.1752 H   0  0  0  0  0  0  0  0  0  0  0  0
    3.7973    1.7093   -0.1600 H   0  0  0  0  0  0  0  0  0  0  0  0
    4.0680   -2.6036   -0.4912 H   0  0  0  0  0  0  0  0  0  0  0  0
  1  2  1  0
  2  3  1  0
  3  4  1  0
  4  5  2  0
  4  6  1  0
  6  7  1  0
  7  8  1  0
  4  9  1  0
  9 10  1  0
 10 11  1  0
 11 12  2  0
 12 13  1  0
 13 14  1  0
 14 15  2  0
 14 16  1  0
 13 17  2  0
 17 18  1  0
 18 19  1  0
 18 10  2  0
  1 20  1  0
  1 21  1  0
  1 22  1  0
  2 23  1  0
  2 24  1  0
  7 25  1  0
  7 26  1  0
  8 27  1  0
  8 28  1  0
  8 29  1  0
 11 30  1  0
 12 31  1  0
 17 32  1  0
M  CHG  2  14   1  16  -1
M  END
$$$$
