
     RDKit          3D

 15 15  0  0  0  0  0  0  0  0999 V2000
    2.4256   -1.6686   -0.9024 O   0  0  0  0  0  0  0  0  0  0  0  0
    2.0638   -0.5010   -0.7012 N   0  0  0  0  0  0  0  0  0  0  0  0
    2.7877    0.4954   -0.8621 O   0  0  0  0  0  0  0  0  0  0  0  0
    0.6921   -0.2716   -0.2427 C   0  0  0  0  0  0  0  0  0  0  0  0
   -0.1513   -1.3787   -0.0513 C   0  0  0  0  0  0  0  0  0  0  0  0
   -1.4632   -1.1839    0.3854 C   0  0  0  0  0  0  0  0  0  0  0  0
   -1.9324    0.1063    0.6302 C   0  0  0  0  0  0  0  0  0  0  0  0
   -1.0938    1.2064    0.4399 C   0  0  0  0  0  0  0  0  0  0  0  0
    0.2192    1.0249    0.0038 C   0  0  0  0  0  0  0  0  0  0  0  0
    0.9459    2.1748   -0.1469 O   0  0  0  0  0  0  0  0  0  0  0  0
    0.1951   -2.3937   -0.2366 H   0  0  0  0  0  0  0  0  0  0  0  0
   -2.1202   -2.0381    0.5351 H   0  0  0  0  0  0  0  0  0  0  0  0
   -2.9544    0.2586    0.9705 H   0  0  0  0  0  0  0  0  0  0  0  0
   -1.4656    2.2104    0.6325 H   0  0  0  0  0  0  0  0  0  0  0  0
    1.8516    1.9588   -0.4543 H   0  0  0  0  0  0  0  0  0  0  0  0
  1  2  2  0
  2  3  1  0
  2  4  1  0
  4  5  2  0
  5  6  1  0
  6  7  2  0
  7  8  1  0
  8  9  2  0
  9 10  1  0
  9  4  1  0
  5 11  1  0
  6 12  1  0
  7 13  1  0
  8 14  1  0
 10 15  1  0
M  CHG  2   2   1   3  -1
M  END
$$$$
