
     RDKit          3D

 17 17  0  0  0  0  0  0  0  0999 V2000
    3.1087   -1.5732   -0.0537 O   0  0  0  0  0  0  0  0  0  0  0  0
    2.8317   -0.3700   -0.1468 N   0  0  0  0  0  0  0  0  0  0  0  0
    3.6532    0.5283   -0.3736 O   0  0  0  0  0  0  0  0  0  0  0  0
    1.4246    0.0183    0.0247 C   0  0  0  0  0  0  0  0  0  0  0  0
    1.0632    1.3687   -0.0720 C   0  0  0  0  0  0  0  0  0  0  0  0
   -0.2740    1.7385    0.0909 C   0  0  0  0  0  0  0  0  0  0  0  0
   -1.2490    0.7725    0.3488 C   0  0  0  0  0  0  0  0  0  0  0  0
   -2.5192    1.2598    0.4882 O   0  0  0  0  0  0  0  0  0  0  0  0
   -0.8834   -0.5791    0.4450 C   0  0  0  0  0  0  0  0  0  0  0  0
   -1.8873   -1.6127    0.7149 N   0  0  0  0  0  0  0  0  0  0  0  0
   -3.0641   -1.2433    0.8533 O   0  0  0  0  0  0  0  0  0  0  0  0
   -1.5058   -2.7876    0.7888 O   0  0  0  0  0  0  0  0  0  0  0  0
    0.4583   -0.9646    0.2832 C   0  0  0  0  0  0  0  0  0  0  0  0
    1.8037    2.1418   -0.2723 H   0  0  0  0  0  0  0  0  0  0  0  0
   -0.5590    2.7869    0.0165 H   0  0  0  0  0  0  0  0  0  0  0  0
   -3.1485    0.5284    0.6668 H   0  0  0  0  0  0  0  0  0  0  0  0
    0.7468   -2.0126    0.3570 H   0  0  0  0  0  0  0  0  0  0  0  0
  1  2  2  0
  2  3  1  0
  2  4  1  0
  4  5  1  0
  5  6  2  0
  6  7  1  0
  7  8  1  0
  7  9  2  0
  9 10  1  0
 10 11  2  0
 10 12  1  0
  9 13  1  0
 13  4  2  0
  5 14  1  0
  6 15  1  0
  8 16  1  0
 13 17  1  0
M  CHG  4   2   1   3  -1  10   1  12  -1
M  END
$$$$
