
     RDKit          3D

 15 15  0  0  0  0  0  0  0  0999 V2000
    2.8504    0.2328    0.2496 N   0  0  0  0  0  0  0  0  0  0  0  0
    1.4703    0.1347    0.1275 C   0  0  0  0  0  0  0  0  0  0  0  0
    0.8418   -1.1027    0.2261 C   0  0  0  0  0  0  0  0  0  0  0  0
   -0.5396   -1.1754    0.0637 C   0  0  0  0  0  0  0  0  0  0  0  0
   -1.2310    0.0063   -0.1947 C   0  0  0  0  0  0  0  0  0  0  0  0
   -2.6544   -0.0323   -0.3629 N   0  0  0  0  0  0  0  0  0  0  0  0
   -3.0868   -0.7062   -1.3065 O   0  0  0  0  0  0  0  0  0  0  0  0
   -3.3411    0.5648    0.4746 O   0  0  0  0  0  0  0  0  0  0  0  0
   -0.5385    1.1941   -0.2936 C   0  0  0  0  0  0  0  0  0  0  0  0
   -1.2496    2.7127   -0.6741 Cl  0  0  0  0  0  0  0  0  0  0  0  0
    0.8059    1.2730   -0.1368 N   0  0  0  0  0  0  0  0  0  0  0  0
    3.1034    1.2164    0.1808 H   0  0  0  0  0  0  0  0  0  0  0  0
    3.1992   -0.1858    1.1042 H   0  0  0  0  0  0  0  0  0  0  0  0
    1.4225   -2.0014    0.4112 H   0  0  0  0  0  0  0  0  0  0  0  0
   -1.0527   -2.1311    0.1307 H   0  0  0  0  0  0  0  0  0  0  0  0
  1  2  1  0
  2  3  2  0
  3  4  1  0
  4  5  2  0
  5  6  1  0
  6  7  2  0
  6  8  1  0
  5  9  1  0
  9 10  1  0
  9 11  2  0
 11  2  1  0
  1 12  1  0
  1 13  1  0
  3 14  1  0
  4 15  1  0
M  CHG  2   6   1   8  -1
M  END
$$$$
