
     RDKit          3D

 32 34  0  0  0  0  0  0  0  0999 V2000
   -2.5427   -3.6996    1.0621 O   0  0  0  0  0  0  0  0  0  0  0  0
   -1.9122   -2.6414    1.0567 C   0  0  0  0  0  0  0  0  0  0  0  0
   -0.5296   -2.5074    1.6697 C   0  0  0  0  0  0  0  0  0  0  0  0
    0.4493   -2.1386    0.6559 N   0  0  0  0  0  0  0  0  0  0  0  0
    0.3950   -0.9731    0.1084 C   0  0  0  0  0  0  0  0  0  0  0  0
    1.4229   -0.6763   -0.9398 C   0  0  0  0  0  0  0  0  0  0  0  0
    2.7393   -1.1076   -0.7401 C   0  0  0  0  0  0  0  0  0  0  0  0
    3.7151   -0.8395   -1.7009 C   0  0  0  0  0  0  0  0  0  0  0  0
    3.3761   -0.1519   -2.8661 C   0  0  0  0  0  0  0  0  0  0  0  0
    2.0604    0.2606   -3.0785 C   0  0  0  0  0  0  0  0  0  0  0  0
    1.0802   -0.0051   -2.1203 C   0  0  0  0  0  0  0  0  0  0  0  0
   -0.6148    0.0810    0.4321 C   0  0  0  0  0  0  0  0  0  0  0  0
   -0.1754    1.4150    0.5105 C   0  0  0  0  0  0  0  0  0  0  0  0
   -1.1089    2.4509    0.6359 C   0  0  0  0  0  0  0  0  0  0  0  0
   -0.6489    3.8442    0.7048 N   0  0  0  0  0  0  0  0  0  0  0  0
    0.5716    4.0487    0.6638 O   0  0  0  0  0  0  0  0  0  0  0  0
   -1.5102    4.7294    0.7980 O   0  0  0  0  0  0  0  0  0  0  0  0
   -2.4779    2.1700    0.6735 C   0  0  0  0  0  0  0  0  0  0  0  0
   -2.9087    0.8417    0.6224 C   0  0  0  0  0  0  0  0  0  0  0  0
   -1.9849   -0.2117    0.5462 C   0  0  0  0  0  0  0  0  0  0  0  0
   -2.5197   -1.5068    0.5842 N   0  0  0  0  0  0  0  0  0  0  0  0
   -0.5485   -1.8024    2.5086 H   0  0  0  0  0  0  0  0  0  0  0  0
   -0.2488   -3.4819    2.0842 H   0  0  0  0  0  0  0  0  0  0  0  0
    3.0066   -1.6536    0.1618 H   0  0  0  0  0  0  0  0  0  0  0  0
    4.7376   -1.1733   -1.5431 H   0  0  0  0  0  0  0  0  0  0  0  0
    4.1372    0.0520   -3.6157 H   0  0  0  0  0  0  0  0  0  0  0  0
    1.7980    0.7804   -3.9968 H   0  0  0  0  0  0  0  0  0  0  0  0
    0.0559    0.2976   -2.3174 H   0  0  0  0  0  0  0  0  0  0  0  0
    0.8892    1.6396    0.4560 H   0  0  0  0  0  0  0  0  0  0  0  0
   -3.2180    2.9646    0.7562 H   0  0  0  0  0  0  0  0  0  0  0  0
   -3.9769    0.6384    0.6826 H   0  0  0  0  0  0  0  0  0  0  0  0
   -3.5083   -1.6440    0.4104 H   0  0  0  0  0  0  0  0  0  0  0  0
  1  2  2  0
  2  3  1  0
  3  4  1  0
  4  5  2  0
  5  6  1  0
  6  7  2  0
  7  8  1  0
  8  9  2  0
  9 10  1  0
 10 11  2  0
  5 12  1  0
 12 13  1  0
 13 14  2  0
 14 15  1  0
 15 16  2  0
 15 17  1  0
 14 18  1  0
 18 19  2  0
 19 20  1  0
 20 21  1  0
 21  2  1  0
 11  6  1  0
 20 12  2  0
  3 22  1  0
  3 23  1  0
  7 24  1  0
  8 25  1  0
  9 26  1  0
 10 27  1  0
 11 28  1  0
 13 29  1  0
 18 30  1  0
 19 31  1  0
 21 32  1  0
M  CHG  2  15   1  17  -1
M  END
$$$$
