
     RDKit          3D

 17 17  0  0  0  0  0  0  0  0999 V2000
    2.5561   -1.2444   -0.0555 N   0  0  0  0  0  0  0  0  0  0  0  0
    1.3852   -0.4888   -0.1593 C   0  0  0  0  0  0  0  0  0  0  0  0
    1.4548    0.8784   -0.4400 C   0  0  0  0  0  0  0  0  0  0  0  0
    0.3054    1.6741   -0.4267 C   0  0  0  0  0  0  0  0  0  0  0  0
   -0.9265    1.1202   -0.0886 C   0  0  0  0  0  0  0  0  0  0  0  0
   -1.9822    1.9897   -0.1080 O   0  0  0  0  0  0  0  0  0  0  0  0
   -0.9976   -0.2364    0.2500 C   0  0  0  0  0  0  0  0  0  0  0  0
   -2.2682   -0.8521    0.6350 N   0  0  0  0  0  0  0  0  0  0  0  0
   -2.2807   -2.0666    0.8791 O   0  0  0  0  0  0  0  0  0  0  0  0
   -3.2674   -0.1161    0.6888 O   0  0  0  0  0  0  0  0  0  0  0  0
    0.1604   -1.0329    0.2339 C   0  0  0  0  0  0  0  0  0  0  0  0
    2.4265   -2.2471   -0.1539 H   0  0  0  0  0  0  0  0  0  0  0  0
    3.3294   -0.9010   -0.6178 H   0  0  0  0  0  0  0  0  0  0  0  0
    2.4106    1.3415   -0.6741 H   0  0  0  0  0  0  0  0  0  0  0  0
    0.3772    2.7322   -0.6675 H   0  0  0  0  0  0  0  0  0  0  0  0
   -2.7996    1.5287    0.1767 H   0  0  0  0  0  0  0  0  0  0  0  0
    0.1166   -2.0796    0.5278 H   0  0  0  0  0  0  0  0  0  0  0  0
  1  2  1  0
  2  3  1  0
  3  4  2  0
  4  5  1  0
  5  6  1  0
  5  7  2  0
  7  8  1  0
  8  9  2  0
  8 10  1  0
  7 11  1  0
 11  2  2  0
  1 12  1  0
  1 13  1  0
  3 14  1  0
  4 15  1  0
  6 16  1  0
 11 17  1  0
M  CHG  2   8   1  10  -1
M  END
$$$$
