
     RDKit          3D

 29 30  0  0  0  0  0  0  0  0999 V2000
    5.1075    1.3063   -0.6346 O   0  0  0  0  0  0  0  0  0  0  0  0
    4.1225    1.7702   -0.0416 N   0  0  0  0  0  0  0  0  0  0  0  0
    4.0335    2.9376    0.3646 O   0  0  0  0  0  0  0  0  0  0  0  0
    2.9811    0.8761    0.1875 C   0  0  0  0  0  0  0  0  0  0  0  0
    1.8338    1.3625    0.8223 C   0  0  0  0  0  0  0  0  0  0  0  0
    0.7509    0.5054    1.0369 C   0  0  0  0  0  0  0  0  0  0  0  0
    0.7949   -0.8354    0.6177 C   0  0  0  0  0  0  0  0  0  0  0  0
   -0.3791   -1.7730    0.8326 C   0  0  0  0  0  0  0  0  0  0  0  0
   -0.6916   -1.7855    2.2292 O   0  0  0  0  0  0  0  0  0  0  0  0
   -1.6613   -1.4656    0.0326 C   0  0  0  0  0  0  0  0  0  0  0  0
   -1.4820   -1.3197   -1.4622 C   0  0  0  0  0  0  0  0  0  0  0  0
   -2.4168   -0.3056   -1.8152 O   0  0  0  0  0  0  0  0  0  0  0  0
   -2.7044    0.3292   -0.6471 C   0  0  0  0  0  0  0  0  0  0  0  0
   -3.4644    1.6188   -0.8112 C   0  0  0  0  0  0  0  0  0  0  0  0
   -2.4056    2.9639   -0.3444 Cl  0  0  0  0  0  0  0  0  0  0  0  0
   -4.9279    1.5784    0.1870 Cl  0  0  0  0  0  0  0  0  0  0  0  0
   -2.2931   -0.1964    0.4711 N   0  0  0  0  0  0  0  0  0  0  0  0
    1.9602   -1.3063   -0.0120 C   0  0  0  0  0  0  0  0  0  0  0  0
    3.0499   -0.4582   -0.2301 C   0  0  0  0  0  0  0  0  0  0  0  0
    1.7656    2.3948    1.1602 H   0  0  0  0  0  0  0  0  0  0  0  0
   -0.1297    0.8935    1.5469 H   0  0  0  0  0  0  0  0  0  0  0  0
   -0.0634   -2.7936    0.5849 H   0  0  0  0  0  0  0  0  0  0  0  0
   -1.3871   -1.1083    2.3465 H   0  0  0  0  0  0  0  0  0  0  0  0
   -2.3935   -2.2568    0.2452 H   0  0  0  0  0  0  0  0  0  0  0  0
   -1.7227   -2.2461   -1.9923 H   0  0  0  0  0  0  0  0  0  0  0  0
   -0.4871   -0.9892   -1.7727 H   0  0  0  0  0  0  0  0  0  0  0  0
   -3.7630    1.7587   -1.8536 H   0  0  0  0  0  0  0  0  0  0  0  0
    2.0332   -2.3448   -0.3313 H   0  0  0  0  0  0  0  0  0  0  0  0
    3.9396   -0.8527   -0.7169 H   0  0  0  0  0  0  0  0  0  0  0  0
  1  2  2  0
  2  3  1  0
  2  4  1  0
  4  5  1  0
  5  6  2  0
  6  7  1  0
  7  8  1  0
  8  9  1  0
  8 10  1  0
 10 11  1  0
 11 12  1  0
 12 13  1  0
 13 14  1  0
 14 15  1  0
 14 16  1  0
 13 17  2  0
  7 18  2  0
 18 19  1  0
 19  4  2  0
 17 10  1  0
  5 20  1  0
  6 21  1  0
  8 22  1  0
  9 23  1  0
 10 24  1  0
 11 25  1  0
 11 26  1  0
 14 27  1  0
 18 28  1  0
 19 29  1  0
M  CHG  2   2   1   3  -1
M  END
$$$$
