
     RDKit          3D

 18 18  0  0  0  0  0  0  0  0999 V2000
   -1.4618   -3.2964    0.1761 O   0  0  0  0  0  0  0  0  0  0  0  0
   -1.8664   -2.1458    0.3837 N   0  0  0  0  0  0  0  0  0  0  0  0
   -3.0149   -1.8506    0.7364 O   0  0  0  0  0  0  0  0  0  0  0  0
   -0.9089   -1.0450    0.1971 C   0  0  0  0  0  0  0  0  0  0  0  0
    0.4050   -1.3314   -0.2023 C   0  0  0  0  0  0  0  0  0  0  0  0
    1.3101   -0.2741   -0.3774 C   0  0  0  0  0  0  0  0  0  0  0  0
    2.6903   -0.5629   -0.7960 N   0  0  0  0  0  0  0  0  0  0  0  0
    3.4568    0.3977   -0.9391 O   0  0  0  0  0  0  0  0  0  0  0  0
    2.9961   -1.7478   -0.9781 O   0  0  0  0  0  0  0  0  0  0  0  0
    0.9174    1.0547   -0.1588 C   0  0  0  0  0  0  0  0  0  0  0  0
   -0.4012    1.3191    0.2402 C   0  0  0  0  0  0  0  0  0  0  0  0
   -0.8239    2.7087    0.4722 N   0  0  0  0  0  0  0  0  0  0  0  0
   -1.9950    2.8988    0.8231 O   0  0  0  0  0  0  0  0  0  0  0  0
    0.0188    3.5983    0.3017 O   0  0  0  0  0  0  0  0  0  0  0  0
   -1.3223    0.2767    0.4211 C   0  0  0  0  0  0  0  0  0  0  0  0
    0.7183   -2.3615   -0.3743 H   0  0  0  0  0  0  0  0  0  0  0  0
    1.6272    1.8708   -0.2971 H   0  0  0  0  0  0  0  0  0  0  0  0
   -2.3455    0.4907    0.7314 H   0  0  0  0  0  0  0  0  0  0  0  0
  1  2  2  0
  2  3  1  0
  2  4  1  0
  4  5  1  0
  5  6  2  0
  6  7  1  0
  7  8  2  0
  7  9  1  0
  6 10  1  0
 10 11  2  0
 11 12  1  0
 12 13  2  0
 12 14  1  0
 11 15  1  0
 15  4  2  0
  5 16  1  0
 10 17  1  0
 15 18  1  0
M  CHG  6   2   1   3  -1   7   1   9  -1  12   1  14  -1
M  END
$$$$
