
     RDKit          3D

 15 15  0  0  0  0  0  0  0  0999 V2000
   -2.6344    0.1932   -0.4757 N   0  0  0  0  0  0  0  0  0  0  0  0
   -1.5329   -0.5700   -0.7507 C   0  0  0  0  0  0  0  0  0  0  0  0
   -1.6371   -1.6061   -1.3953 O   0  0  0  0  0  0  0  0  0  0  0  0
   -0.2282   -0.1276   -0.2119 C   0  0  0  0  0  0  0  0  0  0  0  0
    0.8093   -1.0521   -0.0726 C   0  0  0  0  0  0  0  0  0  0  0  0
    2.0388   -0.6350    0.4329 C   0  0  0  0  0  0  0  0  0  0  0  0
    2.1893    0.6990    0.7774 C   0  0  0  0  0  0  0  0  0  0  0  0
    1.2121    1.6232    0.6446 N   0  0  0  0  0  0  0  0  0  0  0  0
    0.0283    1.1898    0.1429 C   0  0  0  0  0  0  0  0  0  0  0  0
   -3.5222   -0.2057   -0.7578 H   0  0  0  0  0  0  0  0  0  0  0  0
   -2.6587    0.8730    0.2711 H   0  0  0  0  0  0  0  0  0  0  0  0
    0.6607   -2.0919   -0.3556 H   0  0  0  0  0  0  0  0  0  0  0  0
    2.8590   -1.3344    0.5527 H   0  0  0  0  0  0  0  0  0  0  0  0
    3.1288    1.0714    1.1767 H   0  0  0  0  0  0  0  0  0  0  0  0
   -0.7129    1.9731    0.0212 H   0  0  0  0  0  0  0  0  0  0  0  0
  1  2  1  0
  2  3  2  0
  2  4  1  0
  4  5  1  0
  5  6  2  0
  6  7  1  0
  7  8  2  0
  8  9  1  0
  9  4  2  0
  1 10  1  0
  1 11  1  0
  5 12  1  0
  6 13  1  0
  7 14  1  0
  9 15  1  0
M  END
$$$$
