
     RDKit          3D

 34 34  0  0  0  0  0  0  0  0999 V2000
    3.1943   -1.7932    0.2126 C   0  0  0  0  0  0  0  0  0  0  0  0
    2.2526   -0.6217   -0.0297 C   0  0  0  0  0  0  0  0  0  0  0  0
    1.0512   -0.5931    0.9365 C   0  0  0  0  0  0  0  0  0  0  0  0
    1.4742   -0.3946    2.3981 C   0  0  0  0  0  0  0  0  0  0  0  0
    0.0493    0.4716    0.4936 C   0  0  0  0  0  0  0  0  0  0  0  0
    0.3538    1.8395    0.6394 C   0  0  0  0  0  0  0  0  0  0  0  0
   -0.5566    2.8278    0.2285 C   0  0  0  0  0  0  0  0  0  0  0  0
   -0.2125    4.2467    0.4005 N   0  0  0  0  0  0  0  0  0  0  0  0
    0.9213    4.5172    0.8189 O   0  0  0  0  0  0  0  0  0  0  0  0
   -1.0811    5.0842    0.1230 O   0  0  0  0  0  0  0  0  0  0  0  0
   -1.7890    2.4784   -0.3323 C   0  0  0  0  0  0  0  0  0  0  0  0
   -2.0981    1.1207   -0.4907 C   0  0  0  0  0  0  0  0  0  0  0  0
   -3.3990    0.7743   -1.0615 N   0  0  0  0  0  0  0  0  0  0  0  0
   -3.8920    1.5701   -1.8725 O   0  0  0  0  0  0  0  0  0  0  0  0
   -3.9416   -0.2719   -0.6810 O   0  0  0  0  0  0  0  0  0  0  0  0
   -1.1818    0.1251   -0.1030 C   0  0  0  0  0  0  0  0  0  0  0  0
   -1.4640   -1.2376   -0.2691 O   0  0  0  0  0  0  0  0  0  0  0  0
   -1.2774   -1.6718   -1.5773 C   0  0  0  0  0  0  0  0  0  0  0  0
   -1.6050   -3.1311   -1.6650 C   0  0  0  0  0  0  0  0  0  0  0  0
   -0.9053   -0.9788   -2.5145 O   0  0  0  0  0  0  0  0  0  0  0  0
    2.6556   -2.7452    0.1743 H   0  0  0  0  0  0  0  0  0  0  0  0
    3.6924   -1.7138    1.1832 H   0  0  0  0  0  0  0  0  0  0  0  0
    3.9724   -1.8139   -0.5573 H   0  0  0  0  0  0  0  0  0  0  0  0
    2.8237    0.3125    0.0379 H   0  0  0  0  0  0  0  0  0  0  0  0
    1.8871   -0.6875   -1.0627 H   0  0  0  0  0  0  0  0  0  0  0  0
    0.5669   -1.5762    0.8972 H   0  0  0  0  0  0  0  0  0  0  0  0
    2.1071    0.4896    2.5271 H   0  0  0  0  0  0  0  0  0  0  0  0
    2.0375   -1.2596    2.7631 H   0  0  0  0  0  0  0  0  0  0  0  0
    0.5984   -0.2792    3.0467 H   0  0  0  0  0  0  0  0  0  0  0  0
    1.3113    2.1320    1.0708 H   0  0  0  0  0  0  0  0  0  0  0  0
   -2.4976    3.2456   -0.6423 H   0  0  0  0  0  0  0  0  0  0  0  0
   -0.9399   -3.6993   -1.0100 H   0  0  0  0  0  0  0  0  0  0  0  0
   -1.4583   -3.4733   -2.6933 H   0  0  0  0  0  0  0  0  0  0  0  0
   -2.6499   -3.2933   -1.3890 H   0  0  0  0  0  0  0  0  0  0  0  0
  1  2  1  0
  2  3  1  0
  3  4  1  0
  3  5  1  0
  5  6  2  0
  6  7  1  0
  7  8  1  0
  8  9  2  0
  8 10  1  0
  7 11  2  0
 11 12  1  0
 12 13  1  0
 13 14  2  0
 13 15  1  0
 12 16  2  0
 16 17  1  0
 17 18  1  0
 18 19  1  0
 18 20  2  0
 16  5  1  0
  1 21  1  0
  1 22  1  0
  1 23  1  0
  2 24  1  0
  2 25  1  0
  3 26  1  0
  4 27  1  0
  4 28  1  0
  4 29  1  0
  6 30  1  0
 11 31  1  0
 19 32  1  0
 19 33  1  0
 19 34  1  0
M  CHG  4   8   1  10  -1  13   1  15  -1
M  END
$$$$
