
     RDKit          3D

 14 14  0  0  0  0  0  0  0  0999 V2000
   -3.0997    0.6462   -0.4081 O   0  0  0  0  0  0  0  0  0  0  0  0
   -2.3923   -0.2959   -0.0260 N   0  0  0  0  0  0  0  0  0  0  0  0
   -2.8226   -1.3946    0.3496 O   0  0  0  0  0  0  0  0  0  0  0  0
   -0.9373   -0.0952   -0.0177 C   0  0  0  0  0  0  0  0  0  0  0  0
   -0.4035    1.1316   -0.4341 C   0  0  0  0  0  0  0  0  0  0  0  0
    0.9815    1.3179   -0.4245 C   0  0  0  0  0  0  0  0  0  0  0  0
    1.8296    0.2875   -0.0024 C   0  0  0  0  0  0  0  0  0  0  0  0
    3.5295    0.5919   -0.0182 Cl  0  0  0  0  0  0  0  0  0  0  0  0
    1.2887   -0.9372    0.4128 C   0  0  0  0  0  0  0  0  0  0  0  0
    2.2788   -2.2494    0.9453 Cl  0  0  0  0  0  0  0  0  0  0  0  0
   -0.0965   -1.1325    0.4065 C   0  0  0  0  0  0  0  0  0  0  0  0
   -1.0457    1.9461   -0.7662 H   0  0  0  0  0  0  0  0  0  0  0  0
    1.3955    2.2713   -0.7481 H   0  0  0  0  0  0  0  0  0  0  0  0
   -0.5060   -2.0876    0.7310 H   0  0  0  0  0  0  0  0  0  0  0  0
  1  2  2  0
  2  3  1  0
  2  4  1  0
  4  5  1  0
  5  6  2  0
  6  7  1  0
  7  8  1  0
  7  9  2  0
  9 10  1  0
  9 11  1  0
 11  4  2  0
  5 12  1  0
  6 13  1  0
 11 14  1  0
M  CHG  2   2   1   3  -1
M  END
$$$$
