
     RDKit          3D

 34 35  0  0  0  0  0  0  0  0999 V2000
   -0.6416    0.0025   -2.3431 C   0  0  0  0  0  0  0  0  0  0  0  0
   -0.5750   -0.2884   -0.8957 N   0  0  0  0  0  0  0  0  0  0  0  0
   -1.7860   -0.1785   -0.1452 C   0  0  0  0  0  0  0  0  0  0  0  0
   -2.9564    0.3604   -0.7248 C   0  0  0  0  0  0  0  0  0  0  0  0
   -4.1524    0.4942   -0.0077 C   0  0  0  0  0  0  0  0  0  0  0  0
   -4.2171    0.0822    1.3145 C   0  0  0  0  0  0  0  0  0  0  0  0
   -5.6855    0.2448    2.1933 Cl  0  0  0  0  0  0  0  0  0  0  0  0
   -3.1000   -0.4687    1.9245 C   0  0  0  0  0  0  0  0  0  0  0  0
   -1.9011   -0.6043    1.2073 C   0  0  0  0  0  0  0  0  0  0  0  0
   -0.6113   -1.3697    2.0817 Cl  0  0  0  0  0  0  0  0  0  0  0  0
    0.7286   -0.0331   -0.3835 C   0  0  0  0  0  0  0  0  0  0  0  0
    1.0866    1.1837    0.2448 C   0  0  0  0  0  0  0  0  0  0  0  0
    0.1406    2.2798    0.3231 N   0  0  0  0  0  0  0  0  0  0  0  0
   -0.2616    2.5929    1.4506 O   0  0  0  0  0  0  0  0  0  0  0  0
   -0.1485    2.8501   -0.7372 O   0  0  0  0  0  0  0  0  0  0  0  0
    2.3563    1.4189    0.7889 C   0  0  0  0  0  0  0  0  0  0  0  0
    3.3140    0.4104    0.6990 C   0  0  0  0  0  0  0  0  0  0  0  0
    4.6577    0.6303    1.2535 N   0  0  0  0  0  0  0  0  0  0  0  0
    5.4712   -0.2988    1.1705 O   0  0  0  0  0  0  0  0  0  0  0  0
    4.8926    1.7347    1.7610 O   0  0  0  0  0  0  0  0  0  0  0  0
    3.0059   -0.8090    0.0784 C   0  0  0  0  0  0  0  0  0  0  0  0
    1.7184   -1.0469   -0.4583 C   0  0  0  0  0  0  0  0  0  0  0  0
    1.4264   -2.3992   -1.0808 C   0  0  0  0  0  0  0  0  0  0  0  0
    2.4402   -3.2938   -0.8942 F   0  0  0  0  0  0  0  0  0  0  0  0
    1.2641   -2.3228   -2.4316 F   0  0  0  0  0  0  0  0  0  0  0  0
    0.3140   -3.0096   -0.5945 F   0  0  0  0  0  0  0  0  0  0  0  0
   -0.8875    1.0525   -2.5354 H   0  0  0  0  0  0  0  0  0  0  0  0
    0.3096   -0.1956   -2.8508 H   0  0  0  0  0  0  0  0  0  0  0  0
   -1.3868   -0.6386   -2.8283 H   0  0  0  0  0  0  0  0  0  0  0  0
   -2.9719    0.7182   -1.7507 H   0  0  0  0  0  0  0  0  0  0  0  0
   -5.0243    0.9267   -0.4929 H   0  0  0  0  0  0  0  0  0  0  0  0
   -3.1594   -0.8018    2.9578 H   0  0  0  0  0  0  0  0  0  0  0  0
    2.5798    2.3724    1.2658 H   0  0  0  0  0  0  0  0  0  0  0  0
    3.7606   -1.5960    0.0178 H   0  0  0  0  0  0  0  0  0  0  0  0
  1  2  1  0
  2  3  1  0
  3  4  1  0
  4  5  2  0
  5  6  1  0
  6  7  1  0
  6  8  2  0
  8  9  1  0
  9 10  1  0
  2 11  1  0
 11 12  2  0
 12 13  1  0
 13 14  2  0
 13 15  1  0
 12 16  1  0
 16 17  2  0
 17 18  1  0
 18 19  2  0
 18 20  1  0
 17 21  1  0
 21 22  2  0
 22 23  1  0
 23 24  1  0
 23 25  1  0
 23 26  1  0
  9  3  2  0
 22 11  1  0
  1 27  1  0
  1 28  1  0
  1 29  1  0
  4 30  1  0
  5 31  1  0
  8 32  1  0
 16 33  1  0
 21 34  1  0
M  CHG  4  13   1  15  -1  18   1  20  -1
M  END
$$$$
