
     RDKit          3D

 35 36  0  0  0  0  0  0  0  0999 V2000
   -4.2620    1.5941    1.6134 C   0  0  0  0  0  0  0  0  0  0  0  0
   -3.2076    1.0418    0.6717 C   0  0  0  0  0  0  0  0  0  0  0  0
   -2.5995   -0.0906    1.3060 O   0  0  0  0  0  0  0  0  0  0  0  0
   -1.9372   -0.8924    0.4170 C   0  0  0  0  0  0  0  0  0  0  0  0
   -0.8374   -0.4091   -0.2967 C   0  0  0  0  0  0  0  0  0  0  0  0
   -0.1245   -1.2684   -1.1425 C   0  0  0  0  0  0  0  0  0  0  0  0
    0.9441   -0.8421   -1.9008 O   0  0  0  0  0  0  0  0  0  0  0  0
    1.9032   -0.0978   -1.2490 C   0  0  0  0  0  0  0  0  0  0  0  0
    2.5995   -0.6343   -0.1604 C   0  0  0  0  0  0  0  0  0  0  0  0
    3.5884    0.1195    0.4761 C   0  0  0  0  0  0  0  0  0  0  0  0
    3.9085    1.4075    0.0189 C   0  0  0  0  0  0  0  0  0  0  0  0
    4.9563    2.2385    0.7196 C   0  0  0  0  0  0  0  0  0  0  0  0
    5.6604    3.0325   -0.1340 F   0  0  0  0  0  0  0  0  0  0  0  0
    5.8811    1.4903    1.3814 F   0  0  0  0  0  0  0  0  0  0  0  0
    4.4125    3.0726    1.6468 F   0  0  0  0  0  0  0  0  0  0  0  0
    3.2141    1.9299   -1.0863 C   0  0  0  0  0  0  0  0  0  0  0  0
    2.2243    1.1773   -1.7229 C   0  0  0  0  0  0  0  0  0  0  0  0
    1.4021    1.8674   -3.0740 Cl  0  0  0  0  0  0  0  0  0  0  0  0
   -0.5120   -2.6030   -1.2964 C   0  0  0  0  0  0  0  0  0  0  0  0
   -1.5938   -3.1007   -0.5704 C   0  0  0  0  0  0  0  0  0  0  0  0
   -2.2919   -2.2376    0.2843 C   0  0  0  0  0  0  0  0  0  0  0  0
   -3.4231   -2.7678    1.0194 N   0  0  0  0  0  0  0  0  0  0  0  0
   -4.5235   -2.2249    0.8461 O   0  0  0  0  0  0  0  0  0  0  0  0
   -3.2143   -3.7642    1.7269 O   0  0  0  0  0  0  0  0  0  0  0  0
   -4.7322    2.4870    1.1922 H   0  0  0  0  0  0  0  0  0  0  0  0
   -3.8217    1.8485    2.5830 H   0  0  0  0  0  0  0  0  0  0  0  0
   -5.0373    0.8447    1.8023 H   0  0  0  0  0  0  0  0  0  0  0  0
   -3.6825    0.7544   -0.2751 H   0  0  0  0  0  0  0  0  0  0  0  0
   -2.4514    1.8120    0.4829 H   0  0  0  0  0  0  0  0  0  0  0  0
   -0.5328    0.6273   -0.1890 H   0  0  0  0  0  0  0  0  0  0  0  0
    2.3773   -1.6379    0.1944 H   0  0  0  0  0  0  0  0  0  0  0  0
    4.1145   -0.3080    1.3306 H   0  0  0  0  0  0  0  0  0  0  0  0
    3.4508    2.9294   -1.4503 H   0  0  0  0  0  0  0  0  0  0  0  0
    0.0359   -3.2537   -1.9742 H   0  0  0  0  0  0  0  0  0  0  0  0
   -1.8882   -4.1425   -0.6749 H   0  0  0  0  0  0  0  0  0  0  0  0
  1  2  1  0
  2  3  1  0
  3  4  1  0
  4  5  1  0
  5  6  2  0
  6  7  1  0
  7  8  1  0
  8  9  1  0
  9 10  2  0
 10 11  1  0
 11 12  1  0
 12 13  1  0
 12 14  1  0
 12 15  1  0
 11 16  2  0
 16 17  1  0
 17 18  1  0
  6 19  1  0
 19 20  2  0
 20 21  1  0
 21 22  1  0
 22 23  2  0
 22 24  1  0
 21  4  2  0
 17  8  2  0
  1 25  1  0
  1 26  1  0
  1 27  1  0
  2 28  1  0
  2 29  1  0
  5 30  1  0
  9 31  1  0
 10 32  1  0
 16 33  1  0
 19 34  1  0
 20 35  1  0
M  CHG  2  22   1  24  -1
M  END
$$$$
