
     RDKit          3D

 45 45  0  0  0  0  0  0  0  0999 V2000
   -3.6811   -1.6174    2.8737 C   0  0  0  0  0  0  0  0  0  0  0  0
   -3.1656   -0.5430    1.9293 C   0  0  0  0  0  0  0  0  0  0  0  0
   -1.9851   -1.0484    1.0982 C   0  0  0  0  0  0  0  0  0  0  0  0
   -1.4242    0.0446    0.2764 N   0  0  0  0  0  0  0  0  0  0  0  0
   -2.2030    0.4533   -0.9111 C   0  0  0  0  0  0  0  0  0  0  0  0
   -2.7954    1.8459   -0.6844 C   0  0  0  0  0  0  0  0  0  0  0  0
   -3.6700    2.2748   -1.8516 C   0  0  0  0  0  0  0  0  0  0  0  0
   -0.0327   -0.0183    0.0946 C   0  0  0  0  0  0  0  0  0  0  0  0
    0.6491   -0.9606   -0.6967 C   0  0  0  0  0  0  0  0  0  0  0  0
   -0.0710   -2.0128   -1.3784 N   0  0  0  0  0  0  0  0  0  0  0  0
   -0.4394   -1.7849   -2.5382 O   0  0  0  0  0  0  0  0  0  0  0  0
   -0.2230   -3.0769   -0.7638 O   0  0  0  0  0  0  0  0  0  0  0  0
    2.0490   -0.9664   -0.8659 C   0  0  0  0  0  0  0  0  0  0  0  0
    2.8435   -0.0056   -0.2282 C   0  0  0  0  0  0  0  0  0  0  0  0
    4.3534    0.0239   -0.3877 C   0  0  0  0  0  0  0  0  0  0  0  0
    4.7605    0.2557   -1.8449 C   0  0  0  0  0  0  0  0  0  0  0  0
    5.0004   -1.2488    0.1638 C   0  0  0  0  0  0  0  0  0  0  0  0
    2.2060    0.9397    0.5829 C   0  0  0  0  0  0  0  0  0  0  0  0
    0.8057    0.9137    0.7338 C   0  0  0  0  0  0  0  0  0  0  0  0
    0.2328    1.9074    1.6192 N   0  0  0  0  0  0  0  0  0  0  0  0
   -0.0968    1.5321    2.7532 O   0  0  0  0  0  0  0  0  0  0  0  0
    0.1918    3.0726    1.1989 O   0  0  0  0  0  0  0  0  0  0  0  0
   -4.0155   -2.4996    2.3185 H   0  0  0  0  0  0  0  0  0  0  0  0
   -2.9022   -1.9284    3.5772 H   0  0  0  0  0  0  0  0  0  0  0  0
   -4.5291   -1.2382    3.4524 H   0  0  0  0  0  0  0  0  0  0  0  0
   -2.8660    0.3367    2.5109 H   0  0  0  0  0  0  0  0  0  0  0  0
   -3.9841   -0.2283    1.2724 H   0  0  0  0  0  0  0  0  0  0  0  0
   -1.2210   -1.4380    1.7841 H   0  0  0  0  0  0  0  0  0  0  0  0
   -2.3087   -1.8809    0.4625 H   0  0  0  0  0  0  0  0  0  0  0  0
   -1.5819    0.4854   -1.8144 H   0  0  0  0  0  0  0  0  0  0  0  0
   -3.0065   -0.2673   -1.1073 H   0  0  0  0  0  0  0  0  0  0  0  0
   -1.9889    2.5763   -0.5550 H   0  0  0  0  0  0  0  0  0  0  0  0
   -3.3889    1.8662    0.2361 H   0  0  0  0  0  0  0  0  0  0  0  0
   -4.5098    1.5856   -1.9860 H   0  0  0  0  0  0  0  0  0  0  0  0
   -4.0767    3.2750   -1.6729 H   0  0  0  0  0  0  0  0  0  0  0  0
   -3.0953    2.3032   -2.7829 H   0  0  0  0  0  0  0  0  0  0  0  0
    2.5102   -1.7268   -1.4957 H   0  0  0  0  0  0  0  0  0  0  0  0
    4.7493    0.8663    0.1949 H   0  0  0  0  0  0  0  0  0  0  0  0
    5.8479    0.3585   -1.9288 H   0  0  0  0  0  0  0  0  0  0  0  0
    4.4543   -0.5726   -2.4931 H   0  0  0  0  0  0  0  0  0  0  0  0
    4.3059    1.1722   -2.2373 H   0  0  0  0  0  0  0  0  0  0  0  0
    4.7199   -1.4083    1.2110 H   0  0  0  0  0  0  0  0  0  0  0  0
    4.7011   -2.1385   -0.4008 H   0  0  0  0  0  0  0  0  0  0  0  0
    6.0924   -1.1769    0.1166 H   0  0  0  0  0  0  0  0  0  0  0  0
    2.7888    1.6980    1.1053 H   0  0  0  0  0  0  0  0  0  0  0  0
  1  2  1  0
  2  3  1  0
  3  4  1  0
  4  5  1  0
  5  6  1  0
  6  7  1  0
  4  8  1  0
  8  9  1  0
  9 10  1  0
 10 11  2  0
 10 12  1  0
  9 13  2  0
 13 14  1  0
 14 15  1  0
 15 16  1  0
 15 17  1  0
 14 18  2  0
 18 19  1  0
 19 20  1  0
 20 21  2  0
 20 22  1  0
 19  8  2  0
  1 23  1  0
  1 24  1  0
  1 25  1  0
  2 26  1  0
  2 27  1  0
  3 28  1  0
  3 29  1  0
  5 30  1  0
  5 31  1  0
  6 32  1  0
  6 33  1  0
  7 34  1  0
  7 35  1  0
  7 36  1  0
 13 37  1  0
 15 38  1  0
 16 39  1  0
 16 40  1  0
 16 41  1  0
 17 42  1  0
 17 43  1  0
 17 44  1  0
 18 45  1  0
M  CHG  4  10   1  12  -1  20   1  22  -1
M  END
$$$$
