
     RDKit          3D

 21 21  0  0  0  0  0  0  0  0999 V2000
   -2.3203    0.6984   -0.4830 C   0  0  0  0  0  0  0  0  0  0  0  0
   -0.9147    0.2537   -0.1607 C   0  0  0  0  0  0  0  0  0  0  0  0
   -0.5315   -1.0952   -0.3207 C   0  0  0  0  0  0  0  0  0  0  0  0
   -1.3793   -2.0401   -0.9140 N   0  0  0  0  0  0  0  0  0  0  0  0
    0.8048   -1.4674   -0.0951 C   0  0  0  0  0  0  0  0  0  0  0  0
    1.7457   -0.5350    0.3609 C   0  0  0  0  0  0  0  0  0  0  0  0
    3.1260   -0.9620    0.6148 N   0  0  0  0  0  0  0  0  0  0  0  0
    3.3751   -2.1737    0.5540 O   0  0  0  0  0  0  0  0  0  0  0  0
    3.9574   -0.0828    0.8786 O   0  0  0  0  0  0  0  0  0  0  0  0
    1.3872    0.7970    0.5526 C   0  0  0  0  0  0  0  0  0  0  0  0
    0.0696    1.1739    0.2684 C   0  0  0  0  0  0  0  0  0  0  0  0
   -0.2448    2.5867    0.4142 N   0  0  0  0  0  0  0  0  0  0  0  0
   -0.1113    3.0735    1.5440 O   0  0  0  0  0  0  0  0  0  0  0  0
   -0.6002    3.1960   -0.6023 O   0  0  0  0  0  0  0  0  0  0  0  0
   -2.4160    0.8877   -1.5564 H   0  0  0  0  0  0  0  0  0  0  0  0
   -2.6044    1.6025    0.0638 H   0  0  0  0  0  0  0  0  0  0  0  0
   -3.0552   -0.0550   -0.1832 H   0  0  0  0  0  0  0  0  0  0  0  0
   -2.3752   -1.8865   -0.7995 H   0  0  0  0  0  0  0  0  0  0  0  0
   -1.1306   -3.0109   -0.7430 H   0  0  0  0  0  0  0  0  0  0  0  0
    1.1063   -2.4969   -0.2856 H   0  0  0  0  0  0  0  0  0  0  0  0
    2.1111    1.5361    0.8921 H   0  0  0  0  0  0  0  0  0  0  0  0
  1  2  1  0
  2  3  1  0
  3  4  1  0
  3  5  2  0
  5  6  1  0
  6  7  1  0
  7  8  2  0
  7  9  1  0
  6 10  2  0
 10 11  1  0
 11 12  1  0
 12 13  2  0
 12 14  1  0
 11  2  2  0
  1 15  1  0
  1 16  1  0
  1 17  1  0
  4 18  1  0
  4 19  1  0
  5 20  1  0
 10 21  1  0
M  CHG  4   7   1   9  -1  12   1  14  -1
M  END
$$$$
