
     RDKit          3D

 38 38  0  0  0  0  0  0  0  0999 V2000
    3.1608    2.6056   -0.9137 C   0  0  0  0  0  0  0  0  0  0  0  0
    3.5613    1.2125   -0.4440 C   0  0  0  0  0  0  0  0  0  0  0  0
    4.2898    1.2819    0.8932 C   0  0  0  0  0  0  0  0  0  0  0  0
    2.3471    0.4519   -0.2919 O   0  0  0  0  0  0  0  0  0  0  0  0
    2.4697   -0.8934   -0.3865 C   0  0  0  0  0  0  0  0  0  0  0  0
    3.5007   -1.5130   -0.5872 O   0  0  0  0  0  0  0  0  0  0  0  0
    1.1463   -1.5521   -0.2077 C   0  0  0  0  0  0  0  0  0  0  0  0
   -0.0302   -0.8209    0.0195 C   0  0  0  0  0  0  0  0  0  0  0  0
   -1.2580   -1.4815    0.1830 C   0  0  0  0  0  0  0  0  0  0  0  0
   -2.5301   -0.7464    0.4256 C   0  0  0  0  0  0  0  0  0  0  0  0
   -3.6044   -1.3044    0.5724 O   0  0  0  0  0  0  0  0  0  0  0  0
   -2.3088    0.5892    0.4536 O   0  0  0  0  0  0  0  0  0  0  0  0
   -3.4643    1.4198    0.6785 C   0  0  0  0  0  0  0  0  0  0  0  0
   -4.1813    1.6642   -0.6443 C   0  0  0  0  0  0  0  0  0  0  0  0
   -2.9643    2.7312    1.2719 C   0  0  0  0  0  0  0  0  0  0  0  0
   -1.3085   -2.8807    0.1189 C   0  0  0  0  0  0  0  0  0  0  0  0
   -0.1328   -3.6075   -0.1080 C   0  0  0  0  0  0  0  0  0  0  0  0
   -0.1868   -5.0742   -0.1750 N   0  0  0  0  0  0  0  0  0  0  0  0
    0.8745   -5.6799   -0.3740 O   0  0  0  0  0  0  0  0  0  0  0  0
   -1.2905   -5.6159   -0.0285 O   0  0  0  0  0  0  0  0  0  0  0  0
    1.0937   -2.9513   -0.2716 C   0  0  0  0  0  0  0  0  0  0  0  0
    2.4842    3.0837   -0.1965 H   0  0  0  0  0  0  0  0  0  0  0  0
    4.0368    3.2465   -1.0519 H   0  0  0  0  0  0  0  0  0  0  0  0
    2.6191    2.5453   -1.8639 H   0  0  0  0  0  0  0  0  0  0  0  0
    4.2048    0.7592   -1.2079 H   0  0  0  0  0  0  0  0  0  0  0  0
    3.6411    1.6996    1.6711 H   0  0  0  0  0  0  0  0  0  0  0  0
    5.1925    1.8963    0.8210 H   0  0  0  0  0  0  0  0  0  0  0  0
    4.5805    0.2821    1.2316 H   0  0  0  0  0  0  0  0  0  0  0  0
    0.0098    0.2656    0.0692 H   0  0  0  0  0  0  0  0  0  0  0  0
   -4.1419    0.9473    1.4000 H   0  0  0  0  0  0  0  0  0  0  0  0
   -4.5435    0.7234   -1.0716 H   0  0  0  0  0  0  0  0  0  0  0  0
   -5.0367    2.3340   -0.5134 H   0  0  0  0  0  0  0  0  0  0  0  0
   -3.5011    2.1023   -1.3831 H   0  0  0  0  0  0  0  0  0  0  0  0
   -2.4317    2.5449    2.2108 H   0  0  0  0  0  0  0  0  0  0  0  0
   -2.2520    3.2217    0.5990 H   0  0  0  0  0  0  0  0  0  0  0  0
   -3.7914    3.4194    1.4709 H   0  0  0  0  0  0  0  0  0  0  0  0
   -2.2640   -3.3902    0.2464 H   0  0  0  0  0  0  0  0  0  0  0  0
    2.0097   -3.5158   -0.4482 H   0  0  0  0  0  0  0  0  0  0  0  0
  1  2  1  0
  2  3  1  0
  2  4  1  0
  4  5  1  0
  5  6  2  0
  5  7  1  0
  7  8  1  0
  8  9  2  0
  9 10  1  0
 10 11  2  0
 10 12  1  0
 12 13  1  0
 13 14  1  0
 13 15  1  0
  9 16  1  0
 16 17  2  0
 17 18  1  0
 18 19  2  0
 18 20  1  0
 17 21  1  0
 21  7  2  0
  1 22  1  0
  1 23  1  0
  1 24  1  0
  2 25  1  0
  3 26  1  0
  3 27  1  0
  3 28  1  0
  8 29  1  0
 13 30  1  0
 14 31  1  0
 14 32  1  0
 14 33  1  0
 15 34  1  0
 15 35  1  0
 15 36  1  0
 16 37  1  0
 21 38  1  0
M  CHG  2  18   1  20  -1
M  END
$$$$
