
     RDKit          3D

 29 29  0  0  0  0  0  0  0  0999 V2000
   -3.9840   -0.9874    1.6609 C   0  0  0  0  0  0  0  0  0  0  0  0
   -3.6038   -0.4629    0.4040 O   0  0  0  0  0  0  0  0  0  0  0  0
   -2.1185   -0.7964   -0.1518 P   0  0  0  0  0  0  0  0  0  0  0  0
   -1.7127   -2.6725   -0.4323 S   0  0  0  0  0  0  0  0  0  0  0  0
   -2.0562    0.1676   -1.4524 O   0  0  0  0  0  0  0  0  0  0  0  0
   -2.9305   -0.1033   -2.5304 C   0  0  0  0  0  0  0  0  0  0  0  0
   -1.1975    0.0076    0.9064 O   0  0  0  0  0  0  0  0  0  0  0  0
    0.1438    0.2449    0.8035 C   0  0  0  0  0  0  0  0  0  0  0  0
    0.7453    0.7838    1.9424 C   0  0  0  0  0  0  0  0  0  0  0  0
    2.1104    1.0660    1.9516 C   0  0  0  0  0  0  0  0  0  0  0  0
    2.8716    0.8089    0.8035 C   0  0  0  0  0  0  0  0  0  0  0  0
    4.2994    1.0932    0.8694 N   0  0  0  0  0  0  0  0  0  0  0  0
    5.0689    0.1861    0.5357 O   0  0  0  0  0  0  0  0  0  0  0  0
    4.6314    2.2116    1.2810 O   0  0  0  0  0  0  0  0  0  0  0  0
    2.2885    0.2912   -0.3637 C   0  0  0  0  0  0  0  0  0  0  0  0
    3.0821    0.0471   -1.6219 C   0  0  0  0  0  0  0  0  0  0  0  0
    3.9592    1.0483   -1.8976 F   0  0  0  0  0  0  0  0  0  0  0  0
    2.2886   -0.0457   -2.7276 F   0  0  0  0  0  0  0  0  0  0  0  0
    3.7925   -1.1082   -1.5843 F   0  0  0  0  0  0  0  0  0  0  0  0
    0.9073    0.0036   -0.3404 C   0  0  0  0  0  0  0  0  0  0  0  0
   -3.2036   -0.8171    2.4073 H   0  0  0  0  0  0  0  0  0  0  0  0
   -4.8965   -0.4818    1.9872 H   0  0  0  0  0  0  0  0  0  0  0  0
   -4.1897   -2.0572    1.5737 H   0  0  0  0  0  0  0  0  0  0  0  0
   -3.9563   -0.2365   -2.1771 H   0  0  0  0  0  0  0  0  0  0  0  0
   -2.6008   -0.9974   -3.0652 H   0  0  0  0  0  0  0  0  0  0  0  0
   -2.9054    0.7447   -3.2196 H   0  0  0  0  0  0  0  0  0  0  0  0
    0.1488    0.9813    2.8311 H   0  0  0  0  0  0  0  0  0  0  0  0
    2.5689    1.4779    2.8491 H   0  0  0  0  0  0  0  0  0  0  0  0
    0.4490   -0.3973   -1.2427 H   0  0  0  0  0  0  0  0  0  0  0  0
  1  2  1  0
  2  3  1  0
  3  4  2  0
  3  5  1  0
  5  6  1  0
  3  7  1  0
  7  8  1  0
  8  9  1  0
  9 10  2  0
 10 11  1  0
 11 12  1  0
 12 13  2  0
 12 14  1  0
 11 15  2  0
 15 16  1  0
 16 17  1  0
 16 18  1  0
 16 19  1  0
 15 20  1  0
 20  8  2  0
  1 21  1  0
  1 22  1  0
  1 23  1  0
  6 24  1  0
  6 25  1  0
  6 26  1  0
  9 27  1  0
 10 28  1  0
 20 29  1  0
M  CHG  2  12   1  14  -1
M  END
$$$$
