
     RDKit          3D

 24 25  0  0  0  0  0  0  0  0999 V2000
    5.8394    0.0278    0.1112 N   0  0  0  0  0  0  0  0  0  0  0  0
    4.4579    0.0526    0.1236 C   0  0  0  0  0  0  0  0  0  0  0  0
    3.8336   -0.0381   -1.0549 N   0  0  0  0  0  0  0  0  0  0  0  0
    2.4803   -0.0273   -0.9990 C   0  0  0  0  0  0  0  0  0  0  0  0
    1.7594    0.0386    0.1765 C   0  0  0  0  0  0  0  0  0  0  0  0
    0.3003    0.0766    0.2822 C   0  0  0  0  0  0  0  0  0  0  0  0
   -0.5597   -0.4120   -0.6260 C   0  0  0  0  0  0  0  0  0  0  0  0
   -1.9652   -0.3312   -0.4158 C   0  0  0  0  0  0  0  0  0  0  0  0
   -2.9912   -0.8139   -1.2272 C   0  0  0  0  0  0  0  0  0  0  0  0
   -4.2299   -0.5011   -0.6124 C   0  0  0  0  0  0  0  0  0  0  0  0
   -3.8951    0.1575    0.5417 C   0  0  0  0  0  0  0  0  0  0  0  0
   -4.6952    0.7223    1.5813 N   0  0  0  0  0  0  0  0  0  0  0  0
   -5.9217    0.6096    1.4483 O   0  0  0  0  0  0  0  0  0  0  0  0
   -4.1162    1.2760    2.5241 O   0  0  0  0  0  0  0  0  0  0  0  0
   -2.5513    0.2712    0.6800 O   0  0  0  0  0  0  0  0  0  0  0  0
    2.4389    0.1224    1.3326 N   0  0  0  0  0  0  0  0  0  0  0  0
    3.8103    0.1233    1.3025 N   0  0  0  0  0  0  0  0  0  0  0  0
    6.1993   -0.3168    0.9904 H   0  0  0  0  0  0  0  0  0  0  0  0
    6.1704   -0.4156   -0.7341 H   0  0  0  0  0  0  0  0  0  0  0  0
    1.9940   -0.0656   -1.9671 H   0  0  0  0  0  0  0  0  0  0  0  0
   -0.0621    0.5269    1.2056 H   0  0  0  0  0  0  0  0  0  0  0  0
   -0.2163   -0.8938   -1.5360 H   0  0  0  0  0  0  0  0  0  0  0  0
   -2.8520   -1.3382   -2.1640 H   0  0  0  0  0  0  0  0  0  0  0  0
   -5.2278   -0.7256   -0.9636 H   0  0  0  0  0  0  0  0  0  0  0  0
  1  2  1  0
  2  3  2  0
  3  4  1  0
  4  5  2  0
  5  6  1  0
  6  7  2  0
  7  8  1  0
  8  9  2  0
  9 10  1  0
 10 11  2  0
 11 12  1  0
 12 13  2  0
 12 14  1  0
 11 15  1  0
  5 16  1  0
 16 17  2  0
 17  2  1  0
 15  8  1  0
  1 18  1  0
  1 19  1  0
  4 20  1  0
  6 21  1  0
  7 22  1  0
  9 23  1  0
 10 24  1  0
M  CHG  2  12   1  14  -1
M  END
$$$$
