
     RDKit          3D

 19 19  0  0  0  0  0  0  0  0999 V2000
    2.6908   -0.6403    0.1055 C   0  0  0  0  0  0  0  0  0  0  0  0
    1.6307    0.1951   -0.5586 C   0  0  0  0  0  0  0  0  0  0  0  0
    1.8879    1.0579   -1.3913 O   0  0  0  0  0  0  0  0  0  0  0  0
    0.2158   -0.0694   -0.2265 C   0  0  0  0  0  0  0  0  0  0  0  0
   -0.2610   -1.3863   -0.2615 C   0  0  0  0  0  0  0  0  0  0  0  0
   -1.6163   -1.6455   -0.0325 C   0  0  0  0  0  0  0  0  0  0  0  0
   -2.5038   -0.5975    0.2240 C   0  0  0  0  0  0  0  0  0  0  0  0
   -2.0404    0.7176    0.2620 C   0  0  0  0  0  0  0  0  0  0  0  0
   -0.6802    0.9700    0.0373 C   0  0  0  0  0  0  0  0  0  0  0  0
   -0.2104    2.3353    0.1790 N   0  0  0  0  0  0  0  0  0  0  0  0
    0.6882    2.5342    1.0087 O   0  0  0  0  0  0  0  0  0  0  0  0
   -0.8021    3.2067   -0.4723 O   0  0  0  0  0  0  0  0  0  0  0  0
    3.5430   -0.0013    0.3540 H   0  0  0  0  0  0  0  0  0  0  0  0
    3.0090   -1.4349   -0.5738 H   0  0  0  0  0  0  0  0  0  0  0  0
    2.3218   -1.0783    1.0371 H   0  0  0  0  0  0  0  0  0  0  0  0
    0.4033   -2.2164   -0.4925 H   0  0  0  0  0  0  0  0  0  0  0  0
   -1.9859   -2.6691   -0.0676 H   0  0  0  0  0  0  0  0  0  0  0  0
   -3.5578   -0.8081    0.3954 H   0  0  0  0  0  0  0  0  0  0  0  0
   -2.7328    1.5303    0.4735 H   0  0  0  0  0  0  0  0  0  0  0  0
  1  2  1  0
  2  3  2  0
  2  4  1  0
  4  5  2  0
  5  6  1  0
  6  7  2  0
  7  8  1  0
  8  9  2  0
  9 10  1  0
 10 11  2  0
 10 12  1  0
  9  4  1  0
  1 13  1  0
  1 14  1  0
  1 15  1  0
  5 16  1  0
  6 17  1  0
  7 18  1  0
  8 19  1  0
M  CHG  2  10   1  12  -1
M  END
$$$$
