
     RDKit          3D

 35 35  0  0  0  0  0  0  0  0999 V2000
   -2.1784   -1.7508    2.9076 C   0  0  0  0  0  0  0  0  0  0  0  0
   -1.2539   -0.9233    2.2290 O   0  0  0  0  0  0  0  0  0  0  0  0
   -1.3386   -0.8473    0.6107 P   0  0  0  0  0  0  0  0  0  0  0  0
   -1.1098   -2.5155   -0.3567 S   0  0  0  0  0  0  0  0  0  0  0  0
   -0.3186    0.3656    0.2622 O   0  0  0  0  0  0  0  0  0  0  0  0
    1.0388    0.2161    0.2870 C   0  0  0  0  0  0  0  0  0  0  0  0
    1.7163   -0.2059    1.4277 C   0  0  0  0  0  0  0  0  0  0  0  0
    3.1061   -0.3206    1.3980 C   0  0  0  0  0  0  0  0  0  0  0  0
    3.8032   -0.0043    0.2207 C   0  0  0  0  0  0  0  0  0  0  0  0
    5.2550   -0.1521    0.2440 N   0  0  0  0  0  0  0  0  0  0  0  0
    5.7832   -0.7844   -0.6807 O   0  0  0  0  0  0  0  0  0  0  0  0
    5.8565    0.3547    1.2022 O   0  0  0  0  0  0  0  0  0  0  0  0
    3.1360    0.4524   -0.9329 C   0  0  0  0  0  0  0  0  0  0  0  0
    3.8446    0.8073   -2.2117 C   0  0  0  0  0  0  0  0  0  0  0  0
    1.7368    0.5580   -0.8755 C   0  0  0  0  0  0  0  0  0  0  0  0
   -2.7719   -0.1131    0.4205 O   0  0  0  0  0  0  0  0  0  0  0  0
   -3.1125    0.4134   -0.8575 C   0  0  0  0  0  0  0  0  0  0  0  0
   -4.4466   -0.1867   -1.2771 C   0  0  0  0  0  0  0  0  0  0  0  0
   -3.2000    1.9299   -0.7413 C   0  0  0  0  0  0  0  0  0  0  0  0
   -2.1430   -1.5081    3.9738 H   0  0  0  0  0  0  0  0  0  0  0  0
   -3.1953   -1.5799    2.5445 H   0  0  0  0  0  0  0  0  0  0  0  0
   -1.9079   -2.8026    2.7754 H   0  0  0  0  0  0  0  0  0  0  0  0
    1.1861   -0.4318    2.3500 H   0  0  0  0  0  0  0  0  0  0  0  0
    3.6361   -0.6484    2.2925 H   0  0  0  0  0  0  0  0  0  0  0  0
    4.7096    1.4497   -2.0138 H   0  0  0  0  0  0  0  0  0  0  0  0
    3.1874    1.3629   -2.8911 H   0  0  0  0  0  0  0  0  0  0  0  0
    4.1682   -0.1024   -2.7300 H   0  0  0  0  0  0  0  0  0  0  0  0
    1.1787    0.9041   -1.7452 H   0  0  0  0  0  0  0  0  0  0  0  0
   -2.3495    0.1523   -1.5998 H   0  0  0  0  0  0  0  0  0  0  0  0
   -5.2336    0.0611   -0.5555 H   0  0  0  0  0  0  0  0  0  0  0  0
   -4.3826   -1.2810   -1.3075 H   0  0  0  0  0  0  0  0  0  0  0  0
   -4.7494    0.1718   -2.2663 H   0  0  0  0  0  0  0  0  0  0  0  0
   -3.9424    2.2260    0.0100 H   0  0  0  0  0  0  0  0  0  0  0  0
   -2.2408    2.3458   -0.4147 H   0  0  0  0  0  0  0  0  0  0  0  0
   -3.4680    2.3872   -1.6987 H   0  0  0  0  0  0  0  0  0  0  0  0
  1  2  1  0
  2  3  1  0
  3  4  2  0
  3  5  1  0
  5  6  1  0
  6  7  1  0
  7  8  2  0
  8  9  1  0
  9 10  1  0
 10 11  2  0
 10 12  1  0
  9 13  2  0
 13 14  1  0
 13 15  1  0
  3 16  1  0
 16 17  1  0
 17 18  1  0
 17 19  1  0
 15  6  2  0
  1 20  1  0
  1 21  1  0
  1 22  1  0
  7 23  1  0
  8 24  1  0
 14 25  1  0
 14 26  1  0
 14 27  1  0
 15 28  1  0
 17 29  1  0
 18 30  1  0
 18 31  1  0
 18 32  1  0
 19 33  1  0
 19 34  1  0
 19 35  1  0
M  CHG  2  10   1  12  -1
M  END
$$$$
