
     RDKit          3D

 38 39  0  0  0  0  0  0  0  0999 V2000
   -2.5804    1.1325    2.3618 C   0  0  0  0  0  0  0  0  0  0  0  0
   -2.3432    0.7403    0.9723 N   0  0  0  0  0  0  0  0  0  0  0  0
   -3.4189    1.0678    0.0233 C   0  0  0  0  0  0  0  0  0  0  0  0
   -4.5298    0.0102    0.0049 C   0  0  0  0  0  0  0  0  0  0  0  0
   -5.6034    0.4172   -0.8417 O   0  0  0  0  0  0  0  0  0  0  0  0
   -1.3933   -0.2382    0.6810 C   0  0  0  0  0  0  0  0  0  0  0  0
   -1.2101   -0.7463   -0.6165 C   0  0  0  0  0  0  0  0  0  0  0  0
   -0.2350   -1.7107   -0.9145 C   0  0  0  0  0  0  0  0  0  0  0  0
    0.6266   -2.1823    0.0716 C   0  0  0  0  0  0  0  0  0  0  0  0
    1.6068   -3.1491   -0.2236 N   0  0  0  0  0  0  0  0  0  0  0  0
    2.7705   -2.8055   -0.5678 N   0  0  0  0  0  0  0  0  0  0  0  0
    3.1168   -1.4379   -0.6747 C   0  0  0  0  0  0  0  0  0  0  0  0
    2.9972   -0.7507   -1.8989 C   0  0  0  0  0  0  0  0  0  0  0  0
    2.4620   -1.5552   -3.3353 Cl  0  0  0  0  0  0  0  0  0  0  0  0
    3.3325    0.6030   -2.0116 C   0  0  0  0  0  0  0  0  0  0  0  0
    3.8294    1.2811   -0.8953 C   0  0  0  0  0  0  0  0  0  0  0  0
    4.1800    2.7024   -1.0038 N   0  0  0  0  0  0  0  0  0  0  0  0
    4.0222    3.2499   -2.1029 O   0  0  0  0  0  0  0  0  0  0  0  0
    4.6131    3.2652    0.0104 O   0  0  0  0  0  0  0  0  0  0  0  0
    4.0189    0.6118    0.3168 C   0  0  0  0  0  0  0  0  0  0  0  0
    3.6790   -0.7419    0.4137 C   0  0  0  0  0  0  0  0  0  0  0  0
    4.0105   -1.5347    1.9166 Cl  0  0  0  0  0  0  0  0  0  0  0  0
    0.4406   -1.7274    1.3737 C   0  0  0  0  0  0  0  0  0  0  0  0
   -0.5368   -0.7638    1.6651 C   0  0  0  0  0  0  0  0  0  0  0  0
   -3.3336    1.9254    2.4305 H   0  0  0  0  0  0  0  0  0  0  0  0
   -1.6698    1.5352    2.8185 H   0  0  0  0  0  0  0  0  0  0  0  0
   -2.9449    0.2843    2.9518 H   0  0  0  0  0  0  0  0  0  0  0  0
   -3.8639    2.0351    0.2933 H   0  0  0  0  0  0  0  0  0  0  0  0
   -3.0350    1.2452   -0.9882 H   0  0  0  0  0  0  0  0  0  0  0  0
   -4.1558   -0.9470   -0.3702 H   0  0  0  0  0  0  0  0  0  0  0  0
   -4.9311   -0.1621    1.0093 H   0  0  0  0  0  0  0  0  0  0  0  0
   -6.0396    1.1756   -0.4171 H   0  0  0  0  0  0  0  0  0  0  0  0
   -1.8250   -0.4108   -1.4462 H   0  0  0  0  0  0  0  0  0  0  0  0
   -0.1533   -2.0894   -1.9301 H   0  0  0  0  0  0  0  0  0  0  0  0
    3.2110    1.1092   -2.9680 H   0  0  0  0  0  0  0  0  0  0  0  0
    4.4350    1.1250    1.1823 H   0  0  0  0  0  0  0  0  0  0  0  0
    1.0592   -2.1198    2.1765 H   0  0  0  0  0  0  0  0  0  0  0  0
   -0.6085   -0.4436    2.7005 H   0  0  0  0  0  0  0  0  0  0  0  0
  1  2  1  0
  2  3  1  0
  3  4  1  0
  4  5  1  0
  2  6  1  0
  6  7  1  0
  7  8  2  0
  8  9  1  0
  9 10  1  0
 10 11  2  3
 11 12  1  0
 12 13  1  0
 13 14  1  0
 13 15  2  0
 15 16  1  0
 16 17  1  0
 17 18  2  0
 17 19  1  0
 16 20  2  0
 20 21  1  0
 21 22  1  0
  9 23  2  0
 23 24  1  0
 24  6  2  0
 21 12  2  0
  1 25  1  0
  1 26  1  0
  1 27  1  0
  3 28  1  0
  3 29  1  0
  4 30  1  0
  4 31  1  0
  5 32  1  0
  7 33  1  0
  8 34  1  0
 15 35  1  0
 20 36  1  0
 23 37  1  0
 24 38  1  0
M  CHG  2  17   1  19  -1
M  END
$$$$
