
     RDKit          3D

 16 16  0  0  0  0  0  0  0  0999 V2000
   -2.8120   -0.1200    0.2715 N   0  0  0  0  0  0  0  0  0  0  0  0
   -1.4321   -0.0276    0.0701 C   0  0  0  0  0  0  0  0  0  0  0  0
   -0.7155    1.0498    0.6017 C   0  0  0  0  0  0  0  0  0  0  0  0
    0.6797    1.0958    0.5162 C   0  0  0  0  0  0  0  0  0  0  0  0
    1.3676    0.0288   -0.0719 C   0  0  0  0  0  0  0  0  0  0  0  0
    2.8320    0.0666   -0.1632 N   0  0  0  0  0  0  0  0  0  0  0  0
    3.4029   -0.9019   -0.6853 O   0  0  0  0  0  0  0  0  0  0  0  0
    3.4125    1.0662    0.2842 O   0  0  0  0  0  0  0  0  0  0  0  0
    0.6690   -1.0824   -0.5568 C   0  0  0  0  0  0  0  0  0  0  0  0
   -0.7260   -1.1112   -0.4629 C   0  0  0  0  0  0  0  0  0  0  0  0
   -3.2895   -0.7372   -0.3784 H   0  0  0  0  0  0  0  0  0  0  0  0
   -3.2822    0.7751    0.3666 H   0  0  0  0  0  0  0  0  0  0  0  0
   -1.2413    1.8670    1.0902 H   0  0  0  0  0  0  0  0  0  0  0  0
    1.2070    1.9561    0.9224 H   0  0  0  0  0  0  0  0  0  0  0  0
    1.1880   -1.9329   -0.9933 H   0  0  0  0  0  0  0  0  0  0  0  0
   -1.2602   -1.9923   -0.8109 H   0  0  0  0  0  0  0  0  0  0  0  0
  1  2  1  0
  2  3  1  0
  3  4  2  0
  4  5  1  0
  5  6  1  0
  6  7  2  0
  6  8  1  0
  5  9  2  0
  9 10  1  0
 10  2  2  0
  1 11  1  0
  1 12  1  0
  3 13  1  0
  4 14  1  0
  9 15  1  0
 10 16  1  0
M  CHG  2   6   1   8  -1
M  END
$$$$
