
     RDKit          3D

 34 34  0  0  0  0  0  0  0  0999 V2000
   -3.2074    2.4179   -0.2502 C   0  0  0  0  0  0  0  0  0  0  0  0
   -2.9467    0.9256   -0.2628 C   0  0  0  0  0  0  0  0  0  0  0  0
   -1.8038    0.6625    0.5309 O   0  0  0  0  0  0  0  0  0  0  0  0
   -1.6820   -0.7015    1.3968 P   0  0  0  0  0  0  0  0  0  0  0  0
   -3.0644   -0.9748    2.7351 S   0  0  0  0  0  0  0  0  0  0  0  0
   -1.4426   -2.0036    0.1645 C   0  0  0  0  0  0  0  0  0  0  0  0
   -2.6911   -2.5109   -0.5319 C   0  0  0  0  0  0  0  0  0  0  0  0
   -0.2015   -0.5538    2.0576 O   0  0  0  0  0  0  0  0  0  0  0  0
    0.9430   -0.3886    1.3317 C   0  0  0  0  0  0  0  0  0  0  0  0
    1.8778   -1.4210    1.3492 C   0  0  0  0  0  0  0  0  0  0  0  0
    3.0663   -1.2869    0.6338 C   0  0  0  0  0  0  0  0  0  0  0  0
    3.3128   -0.1036   -0.0802 C   0  0  0  0  0  0  0  0  0  0  0  0
    4.5612   -0.0242   -0.8333 N   0  0  0  0  0  0  0  0  0  0  0  0
    4.4961    0.3517   -2.0112 O   0  0  0  0  0  0  0  0  0  0  0  0
    5.5971   -0.3648   -0.2460 O   0  0  0  0  0  0  0  0  0  0  0  0
    2.3994    0.9683   -0.0681 C   0  0  0  0  0  0  0  0  0  0  0  0
    2.6385    2.2646   -0.7910 C   0  0  0  0  0  0  0  0  0  0  0  0
    1.2039    0.8013    0.6513 C   0  0  0  0  0  0  0  0  0  0  0  0
   -3.3915    2.7677    0.7710 H   0  0  0  0  0  0  0  0  0  0  0  0
   -2.3350    2.9656   -0.6220 H   0  0  0  0  0  0  0  0  0  0  0  0
   -4.0724    2.6684   -0.8706 H   0  0  0  0  0  0  0  0  0  0  0  0
   -2.7413    0.5935   -1.2845 H   0  0  0  0  0  0  0  0  0  0  0  0
   -3.8234    0.3900    0.1108 H   0  0  0  0  0  0  0  0  0  0  0  0
   -0.9716   -2.8534    0.6723 H   0  0  0  0  0  0  0  0  0  0  0  0
   -0.7346   -1.6517   -0.5937 H   0  0  0  0  0  0  0  0  0  0  0  0
   -3.1894   -1.7163   -1.0906 H   0  0  0  0  0  0  0  0  0  0  0  0
   -2.4345   -3.3086   -1.2360 H   0  0  0  0  0  0  0  0  0  0  0  0
   -3.4074   -2.9145    0.1892 H   0  0  0  0  0  0  0  0  0  0  0  0
    1.6840   -2.3277    1.9173 H   0  0  0  0  0  0  0  0  0  0  0  0
    3.7912   -2.0988    0.6389 H   0  0  0  0  0  0  0  0  0  0  0  0
    1.9624    3.0486   -0.4324 H   0  0  0  0  0  0  0  0  0  0  0  0
    3.6575    2.6259   -0.6193 H   0  0  0  0  0  0  0  0  0  0  0  0
    2.4667    2.1380   -1.8642 H   0  0  0  0  0  0  0  0  0  0  0  0
    0.4824    1.6150    0.6975 H   0  0  0  0  0  0  0  0  0  0  0  0
  1  2  1  0
  2  3  1  0
  3  4  1  0
  4  5  2  0
  4  6  1  0
  6  7  1  0
  4  8  1  0
  8  9  1  0
  9 10  1  0
 10 11  2  0
 11 12  1  0
 12 13  1  0
 13 14  2  0
 13 15  1  0
 12 16  2  0
 16 17  1  0
 16 18  1  0
 18  9  2  0
  1 19  1  0
  1 20  1  0
  1 21  1  0
  2 22  1  0
  2 23  1  0
  6 24  1  0
  6 25  1  0
  7 26  1  0
  7 27  1  0
  7 28  1  0
 10 29  1  0
 11 30  1  0
 17 31  1  0
 17 32  1  0
 17 33  1  0
 18 34  1  0
M  CHG  2  13   1  15  -1
M  END
$$$$
