
     RDKit          3D

 15 15  0  0  0  0  0  0  0  0999 V2000
    2.3068   -2.1163   -0.2752 O   0  0  0  0  0  0  0  0  0  0  0  0
    2.2795   -0.8787   -0.2100 N   0  0  0  0  0  0  0  0  0  0  0  0
    3.2818   -0.1511   -0.2454 O   0  0  0  0  0  0  0  0  0  0  0  0
    0.9682   -0.2322   -0.0820 C   0  0  0  0  0  0  0  0  0  0  0  0
    0.8895    1.1662   -0.0047 C   0  0  0  0  0  0  0  0  0  0  0  0
   -0.3597    1.7767    0.1170 C   0  0  0  0  0  0  0  0  0  0  0  0
   -1.5154    0.9956    0.1606 C   0  0  0  0  0  0  0  0  0  0  0  0
   -1.4227   -0.3916    0.0829 C   0  0  0  0  0  0  0  0  0  0  0  0
   -2.5840   -1.1041    0.1305 O   0  0  0  0  0  0  0  0  0  0  0  0
   -0.1893   -1.0222   -0.0386 C   0  0  0  0  0  0  0  0  0  0  0  0
    1.7825    1.7872   -0.0376 H   0  0  0  0  0  0  0  0  0  0  0  0
   -0.4351    2.8600    0.1779 H   0  0  0  0  0  0  0  0  0  0  0  0
   -2.4902    1.4683    0.2554 H   0  0  0  0  0  0  0  0  0  0  0  0
   -2.3840   -2.0531    0.0675 H   0  0  0  0  0  0  0  0  0  0  0  0
   -0.1278   -2.1049   -0.0985 H   0  0  0  0  0  0  0  0  0  0  0  0
  1  2  2  0
  2  3  1  0
  2  4  1  0
  4  5  2  0
  5  6  1  0
  6  7  2  0
  7  8  1  0
  8  9  1  0
  8 10  2  0
 10  4  1  0
  5 11  1  0
  6 12  1  0
  7 13  1  0
  9 14  1  0
 10 15  1  0
M  CHG  2   2   1   3  -1
M  END
$$$$
