
     RDKit          3D

 14 14  0  0  0  0  0  0  0  0999 V2000
   -2.8162   -1.2367    0.4013 O   0  0  0  0  0  0  0  0  0  0  0  0
   -2.2958   -0.3285   -0.2619 N   0  0  0  0  0  0  0  0  0  0  0  0
   -2.8894    0.3937   -1.0722 O   0  0  0  0  0  0  0  0  0  0  0  0
   -0.8690   -0.1339   -0.0996 C   0  0  0  0  0  0  0  0  0  0  0  0
   -0.0291   -1.2524   -0.0034 C   0  0  0  0  0  0  0  0  0  0  0  0
    1.3445   -1.0533    0.1471 C   0  0  0  0  0  0  0  0  0  0  0  0
    1.8521    0.2445    0.2027 C   0  0  0  0  0  0  0  0  0  0  0  0
    3.1702    0.4267    0.3486 F   0  0  0  0  0  0  0  0  0  0  0  0
    1.0154    1.3524    0.1149 C   0  0  0  0  0  0  0  0  0  0  0  0
   -0.3541    1.1586   -0.0355 C   0  0  0  0  0  0  0  0  0  0  0  0
   -1.1491    2.2355   -0.0872 F   0  0  0  0  0  0  0  0  0  0  0  0
   -0.4297   -2.2632   -0.0461 H   0  0  0  0  0  0  0  0  0  0  0  0
    2.0240   -1.8980    0.2229 H   0  0  0  0  0  0  0  0  0  0  0  0
    1.4261    2.3547    0.1684 H   0  0  0  0  0  0  0  0  0  0  0  0
  1  2  2  0
  2  3  1  0
  2  4  1  0
  4  5  1  0
  5  6  2  0
  6  7  1  0
  7  8  1  0
  7  9  2  0
  9 10  1  0
 10 11  1  0
 10  4  2  0
  5 12  1  0
  6 13  1  0
  9 14  1  0
M  CHG  2   2   1   3  -1
M  END
$$$$
