
     RDKit          3D

 25 26  0  0  0  0  0  0  0  0999 V2000
    5.4149    1.0709   -0.0263 O   0  0  0  0  0  0  0  0  0  0  0  0
    4.6089    0.3572    0.5874 N   0  0  0  0  0  0  0  0  0  0  0  0
    4.8857   -0.3103    1.5942 O   0  0  0  0  0  0  0  0  0  0  0  0
    3.2303    0.2955    0.0853 C   0  0  0  0  0  0  0  0  0  0  0  0
    2.2860   -0.5040    0.7437 C   0  0  0  0  0  0  0  0  0  0  0  0
    0.9733   -0.5626    0.2639 C   0  0  0  0  0  0  0  0  0  0  0  0
    0.6048    0.1813   -0.8625 C   0  0  0  0  0  0  0  0  0  0  0  0
   -0.6537    0.1864   -1.4273 O   0  0  0  0  0  0  0  0  0  0  0  0
   -1.7174   -0.1406   -0.6214 C   0  0  0  0  0  0  0  0  0  0  0  0
   -2.3004   -1.3975   -0.8082 C   0  0  0  0  0  0  0  0  0  0  0  0
   -3.4049   -1.7700   -0.0414 C   0  0  0  0  0  0  0  0  0  0  0  0
   -3.9313   -0.8779    0.8934 C   0  0  0  0  0  0  0  0  0  0  0  0
   -5.2931   -1.3415    1.8371 Cl  0  0  0  0  0  0  0  0  0  0  0  0
   -3.3713    0.3876    1.0648 C   0  0  0  0  0  0  0  0  0  0  0  0
   -2.2665    0.7622    0.2983 C   0  0  0  0  0  0  0  0  0  0  0  0
   -1.6267    2.3514    0.5062 Cl  0  0  0  0  0  0  0  0  0  0  0  0
    1.5574    0.9658   -1.5219 C   0  0  0  0  0  0  0  0  0  0  0  0
    2.8709    1.0312   -1.0506 C   0  0  0  0  0  0  0  0  0  0  0  0
    2.5537   -1.0856    1.6238 H   0  0  0  0  0  0  0  0  0  0  0  0
    0.2601   -1.1980    0.7814 H   0  0  0  0  0  0  0  0  0  0  0  0
   -1.8922   -2.0838   -1.5461 H   0  0  0  0  0  0  0  0  0  0  0  0
   -3.8531   -2.7509   -0.1805 H   0  0  0  0  0  0  0  0  0  0  0  0
   -3.7988    1.0804    1.7848 H   0  0  0  0  0  0  0  0  0  0  0  0
    1.2712    1.5368   -2.4029 H   0  0  0  0  0  0  0  0  0  0  0  0
    3.5921    1.6545   -1.5751 H   0  0  0  0  0  0  0  0  0  0  0  0
  1  2  2  0
  2  3  1  0
  2  4  1  0
  4  5  1  0
  5  6  2  0
  6  7  1  0
  7  8  1  0
  8  9  1  0
  9 10  1  0
 10 11  2  0
 11 12  1  0
 12 13  1  0
 12 14  2  0
 14 15  1  0
 15 16  1  0
  7 17  2  0
 17 18  1  0
 18  4  2  0
 15  9  2  0
  5 19  1  0
  6 20  1  0
 10 21  1  0
 11 22  1  0
 14 23  1  0
 17 24  1  0
 18 25  1  0
M  CHG  2   2   1   3  -1
M  END
$$$$
