
     RDKit          3D

 16 16  0  0  0  0  0  0  0  0999 V2000
    2.8337   -1.7251    0.1663 O   0  0  0  0  0  0  0  0  0  0  0  0
    2.6437   -0.5019    0.1802 N   0  0  0  0  0  0  0  0  0  0  0  0
    3.5354    0.3531    0.2607 O   0  0  0  0  0  0  0  0  0  0  0  0
    1.2541   -0.0314    0.0961 C   0  0  0  0  0  0  0  0  0  0  0  0
    0.9809    1.3448    0.1477 C   0  0  0  0  0  0  0  0  0  0  0  0
   -0.3428    1.7975    0.0659 C   0  0  0  0  0  0  0  0  0  0  0  0
   -1.3963    0.8869   -0.0640 C   0  0  0  0  0  0  0  0  0  0  0  0
   -2.9972    1.5141   -0.1870 Cl  0  0  0  0  0  0  0  0  0  0  0  0
   -1.0999   -0.4765   -0.1077 C   0  0  0  0  0  0  0  0  0  0  0  0
   -2.1618   -1.4446   -0.2360 N   0  0  0  0  0  0  0  0  0  0  0  0
   -2.8387   -1.6715    0.7734 O   0  0  0  0  0  0  0  0  0  0  0  0
   -2.2743   -2.0015   -1.3346 O   0  0  0  0  0  0  0  0  0  0  0  0
    0.2141   -0.9585   -0.0337 C   0  0  0  0  0  0  0  0  0  0  0  0
    1.7828    2.0759    0.2484 H   0  0  0  0  0  0  0  0  0  0  0  0
   -0.5426    2.8677    0.1015 H   0  0  0  0  0  0  0  0  0  0  0  0
    0.4090   -2.0291   -0.0770 H   0  0  0  0  0  0  0  0  0  0  0  0
  1  2  2  0
  2  3  1  0
  2  4  1  0
  4  5  1  0
  5  6  2  0
  6  7  1  0
  7  8  1  0
  7  9  2  0
  9 10  1  0
 10 11  2  0
 10 12  1  0
  9 13  1  0
 13  4  2  0
  5 14  1  0
  6 15  1  0
 13 16  1  0
M  CHG  4   2   1   3  -1  10   1  12  -1
M  END
$$$$
