
     RDKit          3D

 16 16  0  0  0  0  0  0  0  0999 V2000
   -2.4354   -1.0188    0.1067 N   0  0  0  0  0  0  0  0  0  0  0  0
   -1.2375   -0.3207   -0.0562 C   0  0  0  0  0  0  0  0  0  0  0  0
   -1.2527    1.0706   -0.2211 C   0  0  0  0  0  0  0  0  0  0  0  0
   -0.0627    1.8054   -0.2569 C   0  0  0  0  0  0  0  0  0  0  0  0
    1.1542    1.1552   -0.0906 C   0  0  0  0  0  0  0  0  0  0  0  0
    2.2776    1.8847   -0.0967 F   0  0  0  0  0  0  0  0  0  0  0  0
    1.1716   -0.2168    0.1215 C   0  0  0  0  0  0  0  0  0  0  0  0
    2.4364   -0.8918    0.3157 N   0  0  0  0  0  0  0  0  0  0  0  0
    2.4814   -1.7618    1.1974 O   0  0  0  0  0  0  0  0  0  0  0  0
    3.3747   -0.5875   -0.4318 O   0  0  0  0  0  0  0  0  0  0  0  0
   -0.0158   -0.9596    0.1665 C   0  0  0  0  0  0  0  0  0  0  0  0
   -2.3796   -2.0178   -0.0695 H   0  0  0  0  0  0  0  0  0  0  0  0
   -3.2412   -0.5943   -0.3434 H   0  0  0  0  0  0  0  0  0  0  0  0
   -2.1995    1.5980   -0.3187 H   0  0  0  0  0  0  0  0  0  0  0  0
   -0.0831    2.8825   -0.3948 H   0  0  0  0  0  0  0  0  0  0  0  0
    0.0118   -2.0274    0.3718 H   0  0  0  0  0  0  0  0  0  0  0  0
  1  2  1  0
  2  3  1  0
  3  4  2  0
  4  5  1  0
  5  6  1  0
  5  7  2  0
  7  8  1  0
  8  9  2  0
  8 10  1  0
  7 11  1  0
 11  2  2  0
  1 12  1  0
  1 13  1  0
  3 14  1  0
  4 15  1  0
 11 16  1  0
M  CHG  2   8   1  10  -1
M  END
$$$$
