
     RDKit          3D

 51 54  0  0  0  0  0  0  0  0999 V2000
   -0.5259    0.3431   -1.8896 O   0  0  0  0  0  0  0  0  0  0  0  0
   -0.5647   -0.3144   -0.8611 C   0  0  0  0  0  0  0  0  0  0  0  0
    0.6717   -1.0231   -0.3248 C   0  0  0  0  0  0  0  0  0  0  0  0
    1.7696   -0.3370   -0.3757 N   0  0  0  0  0  0  0  0  0  0  0  0
    2.8659   -0.8893    0.1904 N   0  0  0  0  0  0  0  0  0  0  0  0
    4.1414   -0.3875   -0.1612 C   0  0  0  0  0  0  0  0  0  0  0  0
    4.3259    0.5968   -1.1385 C   0  0  0  0  0  0  0  0  0  0  0  0
    5.6209    1.0361   -1.4521 C   0  0  0  0  0  0  0  0  0  0  0  0
    5.8065    2.0901   -2.4576 N   0  0  0  0  0  0  0  0  0  0  0  0
    6.9688    2.4179   -2.7395 O   0  0  0  0  0  0  0  0  0  0  0  0
    4.7947    2.5929   -2.9659 O   0  0  0  0  0  0  0  0  0  0  0  0
    6.7425    0.4839   -0.8160 C   0  0  0  0  0  0  0  0  0  0  0  0
    6.5667   -0.5306    0.1239 C   0  0  0  0  0  0  0  0  0  0  0  0
    5.2805   -0.9713    0.4233 C   0  0  0  0  0  0  0  0  0  0  0  0
    5.1669   -2.0182    1.3011 O   0  0  0  0  0  0  0  0  0  0  0  0
    0.3875   -2.3733    0.2170 C   0  0  0  0  0  0  0  0  0  0  0  0
    1.5366   -3.6555    0.1577 S   0  0  0  0  0  0  0  0  0  0  0  0
    2.6555   -3.4027    1.0466 O   0  0  0  0  0  0  0  0  0  0  0  0
    0.8670   -4.9390    0.1992 O   0  0  0  0  0  0  0  0  0  0  0  0
    2.0809   -3.5212   -1.3518 O   0  0  0  0  0  0  0  0  0  0  0  0
   -0.8293   -2.6120    0.7402 C   0  0  0  0  0  0  0  0  0  0  0  0
   -1.8920   -1.5981    0.7497 C   0  0  0  0  0  0  0  0  0  0  0  0
   -3.0358   -1.7915    1.5237 C   0  0  0  0  0  0  0  0  0  0  0  0
   -4.0586   -0.8419    1.4786 C   0  0  0  0  0  0  0  0  0  0  0  0
   -5.5237   -1.0679    2.4554 S   0  0  0  0  0  0  0  0  0  0  0  0
   -5.4101   -2.3302    3.1520 O   0  0  0  0  0  0  0  0  0  0  0  0
   -6.6646   -0.7588    1.6235 O   0  0  0  0  0  0  0  0  0  0  0  0
   -5.4387    0.1045    3.5592 O   0  0  0  0  0  0  0  0  0  0  0  0
   -3.9684    0.2872    0.6524 C   0  0  0  0  0  0  0  0  0  0  0  0
   -2.8448    0.4989   -0.1549 C   0  0  0  0  0  0  0  0  0  0  0  0
   -2.7016    1.6324   -0.9724 N   0  0  0  0  0  0  0  0  0  0  0  0
   -3.4349    2.8018   -1.1504 C   0  0  0  0  0  0  0  0  0  0  0  0
   -3.0361    3.5826   -2.1442 N   0  0  0  0  0  0  0  0  0  0  0  0
   -3.7342    4.7018   -2.2938 C   0  0  0  0  0  0  0  0  0  0  0  0
   -3.2481    5.7232   -3.5732 Cl  0  0  0  0  0  0  0  0  0  0  0  0
   -4.7587    5.1172   -1.5761 N   0  0  0  0  0  0  0  0  0  0  0  0
   -5.0498    4.2553   -0.6235 C   0  0  0  0  0  0  0  0  0  0  0  0
   -6.3592    4.6658    0.3941 Cl  0  0  0  0  0  0  0  0  0  0  0  0
   -4.4489    3.1036   -0.3525 N   0  0  0  0  0  0  0  0  0  0  0  0
   -1.8056   -0.4580   -0.0709 C   0  0  0  0  0  0  0  0  0  0  0  0
    2.8373   -1.0631    1.2014 H   0  0  0  0  0  0  0  0  0  0  0  0
    3.4587    1.0262   -1.6357 H   0  0  0  0  0  0  0  0  0  0  0  0
    7.7506    0.8200   -1.0500 H   0  0  0  0  0  0  0  0  0  0  0  0
    7.4256   -0.9899    0.6066 H   0  0  0  0  0  0  0  0  0  0  0  0
    4.3244   -2.4866    1.1171 H   0  0  0  0  0  0  0  0  0  0  0  0
    2.5857   -4.3294   -1.5826 H   0  0  0  0  0  0  0  0  0  0  0  0
   -1.0808   -3.5886    1.1538 H   0  0  0  0  0  0  0  0  0  0  0  0
   -3.1367   -2.6711    2.1587 H   0  0  0  0  0  0  0  0  0  0  0  0
   -6.3330    0.4996    3.6511 H   0  0  0  0  0  0  0  0  0  0  0  0
   -4.8037    0.9829    0.6395 H   0  0  0  0  0  0  0  0  0  0  0  0
   -1.9441    1.5864   -1.6603 H   0  0  0  0  0  0  0  0  0  0  0  0
  1  2  2  0
  2  3  1  0
  3  4  2  3
  4  5  1  0
  5  6  1  0
  6  7  1  0
  7  8  2  0
  8  9  1  0
  9 10  2  0
  9 11  1  0
  8 12  1  0
 12 13  2  0
 13 14  1  0
 14 15  1  0
  3 16  1  0
 16 17  1  0
 17 18  2  0
 17 19  2  0
 17 20  1  0
 16 21  2  0
 21 22  1  0
 22 23  2  0
 23 24  1  0
 24 25  1  0
 25 26  2  0
 25 27  2  0
 25 28  1  0
 24 29  2  0
 29 30  1  0
 30 31  1  0
 31 32  1  0
 32 33  2  0
 33 34  1  0
 34 35  1  0
 34 36  2  0
 36 37  1  0
 37 38  1  0
 37 39  2  0
 30 40  2  0
 40  2  1  0
 14  6  2  0
 40 22  1  0
 39 32  1  0
  5 41  1  0
  7 42  1  0
 12 43  1  0
 13 44  1  0
 15 45  1  0
 20 46  1  0
 21 47  1  0
 23 48  1  0
 28 49  1  0
 29 50  1  0
 31 51  1  0
M  CHG  2   9   1  11  -1
M  END
$$$$
