
     RDKit          3D

 29 29  0  0  0  0  0  0  0  0999 V2000
    2.8195   -1.8568   -0.3672 C   0  0  0  0  0  0  0  0  0  0  0  0
    2.2904   -1.2796    0.8079 O   0  0  0  0  0  0  0  0  0  0  0  0
    2.1630    0.3262    0.8909 P   0  0  0  0  0  0  0  0  0  0  0  0
    1.7331    0.8497    2.2272 O   0  0  0  0  0  0  0  0  0  0  0  0
    3.6170    0.8431    0.4174 O   0  0  0  0  0  0  0  0  0  0  0  0
    3.8493    2.2338    0.5132 C   0  0  0  0  0  0  0  0  0  0  0  0
    1.2108    0.7242   -0.3468 O   0  0  0  0  0  0  0  0  0  0  0  0
   -0.1230    0.4390   -0.4312 C   0  0  0  0  0  0  0  0  0  0  0  0
   -0.7546    0.8466   -1.6070 C   0  0  0  0  0  0  0  0  0  0  0  0
   -2.1123    0.5936   -1.7971 C   0  0  0  0  0  0  0  0  0  0  0  0
   -2.8355   -0.0713   -0.7967 C   0  0  0  0  0  0  0  0  0  0  0  0
   -4.2490   -0.3310   -1.0537 N   0  0  0  0  0  0  0  0  0  0  0  0
   -4.9269    0.6136   -1.4814 O   0  0  0  0  0  0  0  0  0  0  0  0
   -4.6678   -1.4787   -0.8527 O   0  0  0  0  0  0  0  0  0  0  0  0
   -2.2255   -0.4725    0.4064 C   0  0  0  0  0  0  0  0  0  0  0  0
   -2.9662   -1.1733    1.5121 C   0  0  0  0  0  0  0  0  0  0  0  0
   -0.8504   -0.2164    0.5657 C   0  0  0  0  0  0  0  0  0  0  0  0
    3.8875   -1.6377   -0.4454 H   0  0  0  0  0  0  0  0  0  0  0  0
    2.2979   -1.4868   -1.2534 H   0  0  0  0  0  0  0  0  0  0  0  0
    2.6887   -2.9406   -0.3125 H   0  0  0  0  0  0  0  0  0  0  0  0
    3.0792    2.7872   -0.0311 H   0  0  0  0  0  0  0  0  0  0  0  0
    3.8572    2.5407    1.5624 H   0  0  0  0  0  0  0  0  0  0  0  0
    4.8238    2.4579    0.0722 H   0  0  0  0  0  0  0  0  0  0  0  0
   -0.1882    1.3613   -2.3799 H   0  0  0  0  0  0  0  0  0  0  0  0
   -2.5942    0.9116   -2.7195 H   0  0  0  0  0  0  0  0  0  0  0  0
   -3.1298   -2.2237    1.2529 H   0  0  0  0  0  0  0  0  0  0  0  0
   -3.9268   -0.6866    1.7091 H   0  0  0  0  0  0  0  0  0  0  0  0
   -2.4008   -1.1419    2.4500 H   0  0  0  0  0  0  0  0  0  0  0  0
   -0.3665   -0.5317    1.4881 H   0  0  0  0  0  0  0  0  0  0  0  0
  1  2  1  0
  2  3  1  0
  3  4  2  0
  3  5  1  0
  5  6  1  0
  3  7  1  0
  7  8  1  0
  8  9  1  0
  9 10  2  0
 10 11  1  0
 11 12  1  0
 12 13  2  0
 12 14  1  0
 11 15  2  0
 15 16  1  0
 15 17  1  0
 17  8  2  0
  1 18  1  0
  1 19  1  0
  1 20  1  0
  6 21  1  0
  6 22  1  0
  6 23  1  0
  9 24  1  0
 10 25  1  0
 16 26  1  0
 16 27  1  0
 16 28  1  0
 17 29  1  0
M  CHG  2  12   1  14  -1
M  END
$$$$
