
     RDKit          3D

 26 26  0  0  0  0  0  0  0  0999 V2000
    3.0124   -2.3241    0.2121 C   0  0  0  0  0  0  0  0  0  0  0  0
    2.9361   -1.0113   -0.3081 O   0  0  0  0  0  0  0  0  0  0  0  0
    1.8797    0.0213    0.3586 P   0  0  0  0  0  0  0  0  0  0  0  0
    2.1490    0.4206    2.2380 S   0  0  0  0  0  0  0  0  0  0  0  0
    1.9777    1.2662   -0.6738 O   0  0  0  0  0  0  0  0  0  0  0  0
    3.2032    1.9656   -0.7661 C   0  0  0  0  0  0  0  0  0  0  0  0
    0.4719   -0.6551   -0.0610 O   0  0  0  0  0  0  0  0  0  0  0  0
   -0.7670   -0.0919    0.0496 C   0  0  0  0  0  0  0  0  0  0  0  0
   -1.0076    1.2361    0.4014 C   0  0  0  0  0  0  0  0  0  0  0  0
   -2.3215    1.7204    0.4792 C   0  0  0  0  0  0  0  0  0  0  0  0
   -3.4049    0.8827    0.2058 C   0  0  0  0  0  0  0  0  0  0  0  0
   -4.9905    1.5539    0.2851 Cl  0  0  0  0  0  0  0  0  0  0  0  0
   -3.1447   -0.4399   -0.1426 C   0  0  0  0  0  0  0  0  0  0  0  0
   -4.2279   -1.3470   -0.4310 N   0  0  0  0  0  0  0  0  0  0  0  0
   -4.3482   -1.7152   -1.6066 O   0  0  0  0  0  0  0  0  0  0  0  0
   -4.9193   -1.7230    0.5235 O   0  0  0  0  0  0  0  0  0  0  0  0
   -1.8388   -0.9381   -0.2308 C   0  0  0  0  0  0  0  0  0  0  0  0
    3.5799   -2.9430   -0.4876 H   0  0  0  0  0  0  0  0  0  0  0  0
    2.0151   -2.7555    0.3313 H   0  0  0  0  0  0  0  0  0  0  0  0
    3.5328   -2.3165    1.1730 H   0  0  0  0  0  0  0  0  0  0  0  0
    3.1558    2.6368   -1.6275 H   0  0  0  0  0  0  0  0  0  0  0  0
    4.0376    1.2740   -0.9076 H   0  0  0  0  0  0  0  0  0  0  0  0
    3.3630    2.5644    0.1340 H   0  0  0  0  0  0  0  0  0  0  0  0
   -0.1988    1.9302    0.6138 H   0  0  0  0  0  0  0  0  0  0  0  0
   -2.4873    2.7617    0.7508 H   0  0  0  0  0  0  0  0  0  0  0  0
   -1.6578   -1.9731   -0.5132 H   0  0  0  0  0  0  0  0  0  0  0  0
  1  2  1  0
  2  3  1  0
  3  4  2  0
  3  5  1  0
  5  6  1  0
  3  7  1  0
  7  8  1  0
  8  9  1  0
  9 10  2  0
 10 11  1  0
 11 12  1  0
 11 13  2  0
 13 14  1  0
 14 15  2  0
 14 16  1  0
 13 17  1  0
 17  8  2  0
  1 18  1  0
  1 19  1  0
  1 20  1  0
  6 21  1  0
  6 22  1  0
  6 23  1  0
  9 24  1  0
 10 25  1  0
 17 26  1  0
M  CHG  2  14   1  16  -1
M  END
$$$$
