
     RDKit          3D

 38 39  0  0  0  0  0  0  0  0999 V2000
    3.8706   -0.6879   -0.4420 C   0  0  0  0  0  0  0  0  0  0  0  0
    2.4610   -0.1573   -0.3579 C   0  0  0  0  0  0  0  0  0  0  0  0
    2.1813    1.2220   -0.4769 C   0  0  0  0  0  0  0  0  0  0  0  0
    3.2537    2.1919   -0.6668 N   0  0  0  0  0  0  0  0  0  0  0  0
    4.1682    2.1967    0.1669 O   0  0  0  0  0  0  0  0  0  0  0  0
    3.1574    2.9523   -1.6388 O   0  0  0  0  0  0  0  0  0  0  0  0
    0.8792    1.7384   -0.3964 C   0  0  0  0  0  0  0  0  0  0  0  0
   -0.1769    0.8626   -0.1701 C   0  0  0  0  0  0  0  0  0  0  0  0
    0.0446   -0.5174   -0.0112 C   0  0  0  0  0  0  0  0  0  0  0  0
    1.3580   -1.0066   -0.1003 C   0  0  0  0  0  0  0  0  0  0  0  0
    1.6065   -2.4209    0.0973 N   0  0  0  0  0  0  0  0  0  0  0  0
    1.6308   -3.1308   -0.9161 O   0  0  0  0  0  0  0  0  0  0  0  0
    1.8046   -2.7978    1.2584 O   0  0  0  0  0  0  0  0  0  0  0  0
   -1.2619   -1.2358    0.2846 C   0  0  0  0  0  0  0  0  0  0  0  0
   -1.5172   -2.4896   -0.5653 C   0  0  0  0  0  0  0  0  0  0  0  0
   -1.3839   -1.5986    1.7720 C   0  0  0  0  0  0  0  0  0  0  0  0
   -2.3055   -0.1506   -0.1157 C   0  0  0  0  0  0  0  0  0  0  0  0
   -1.6334    1.2389   -0.0257 C   0  0  0  0  0  0  0  0  0  0  0  0
   -2.1248    2.1401   -1.1682 C   0  0  0  0  0  0  0  0  0  0  0  0
   -1.8995    1.9323    1.3160 C   0  0  0  0  0  0  0  0  0  0  0  0
    4.3446   -0.6467    0.5436 H   0  0  0  0  0  0  0  0  0  0  0  0
    3.9053   -1.7196   -0.8030 H   0  0  0  0  0  0  0  0  0  0  0  0
    4.4708   -0.1143   -1.1557 H   0  0  0  0  0  0  0  0  0  0  0  0
    0.6992    2.8074   -0.4935 H   0  0  0  0  0  0  0  0  0  0  0  0
   -1.2973   -2.3106   -1.6241 H   0  0  0  0  0  0  0  0  0  0  0  0
   -2.5653   -2.8028   -0.4886 H   0  0  0  0  0  0  0  0  0  0  0  0
   -0.9129   -3.3405   -0.2380 H   0  0  0  0  0  0  0  0  0  0  0  0
   -2.3998   -1.9330    2.0110 H   0  0  0  0  0  0  0  0  0  0  0  0
   -0.7042   -2.4129    2.0429 H   0  0  0  0  0  0  0  0  0  0  0  0
   -1.1442   -0.7588    2.4297 H   0  0  0  0  0  0  0  0  0  0  0  0
   -2.6231   -0.3269   -1.1544 H   0  0  0  0  0  0  0  0  0  0  0  0
   -3.2197   -0.2098    0.4875 H   0  0  0  0  0  0  0  0  0  0  0  0
   -3.2093    2.2864   -1.1107 H   0  0  0  0  0  0  0  0  0  0  0  0
   -1.8957    1.7082   -2.1496 H   0  0  0  0  0  0  0  0  0  0  0  0
   -1.6548    3.1295   -1.1328 H   0  0  0  0  0  0  0  0  0  0  0  0
   -1.4064    2.9108    1.3587 H   0  0  0  0  0  0  0  0  0  0  0  0
   -1.5276    1.3564    2.1675 H   0  0  0  0  0  0  0  0  0  0  0  0
   -2.9726    2.0953    1.4661 H   0  0  0  0  0  0  0  0  0  0  0  0
  1  2  1  0
  2  3  1  0
  3  4  1  0
  4  5  2  0
  4  6  1  0
  3  7  2  0
  7  8  1  0
  8  9  2  0
  9 10  1  0
 10 11  1  0
 11 12  2  0
 11 13  1  0
  9 14  1  0
 14 15  1  0
 14 16  1  0
 14 17  1  0
 17 18  1  0
 18 19  1  0
 18 20  1  0
 10  2  2  0
 18  8  1  0
  1 21  1  0
  1 22  1  0
  1 23  1  0
  7 24  1  0
 15 25  1  0
 15 26  1  0
 15 27  1  0
 16 28  1  0
 16 29  1  0
 16 30  1  0
 17 31  1  0
 17 32  1  0
 19 33  1  0
 19 34  1  0
 19 35  1  0
 20 36  1  0
 20 37  1  0
 20 38  1  0
M  CHG  4   4   1   6  -1  11   1  13  -1
M  END
$$$$
