
     RDKit          3D

 16 16  0  0  0  0  0  0  0  0999 V2000
   -2.7238   -0.7353   -0.0156 N   0  0  0  0  0  0  0  0  0  0  0  0
   -1.3669   -0.3814    0.0667 C   0  0  0  0  0  0  0  0  0  0  0  0
   -0.3958   -1.3571   -0.1906 C   0  0  0  0  0  0  0  0  0  0  0  0
    0.9609   -1.0228   -0.2439 C   0  0  0  0  0  0  0  0  0  0  0  0
    1.3511    0.3114   -0.0743 C   0  0  0  0  0  0  0  0  0  0  0  0
    2.7744    0.6656   -0.1318 N   0  0  0  0  0  0  0  0  0  0  0  0
    3.5879   -0.2488   -0.3243 O   0  0  0  0  0  0  0  0  0  0  0  0
    3.0775    1.8572    0.0189 O   0  0  0  0  0  0  0  0  0  0  0  0
    0.3969    1.3117    0.1359 C   0  0  0  0  0  0  0  0  0  0  0  0
   -0.9538    0.9607    0.1856 C   0  0  0  0  0  0  0  0  0  0  0  0
   -2.1173    2.2178    0.4314 Cl  0  0  0  0  0  0  0  0  0  0  0  0
   -3.3424   -0.0478    0.4118 H   0  0  0  0  0  0  0  0  0  0  0  0
   -2.9361   -1.6862    0.2687 H   0  0  0  0  0  0  0  0  0  0  0  0
   -0.6920   -2.3906   -0.3584 H   0  0  0  0  0  0  0  0  0  0  0  0
    1.6915   -1.8077   -0.4313 H   0  0  0  0  0  0  0  0  0  0  0  0
    0.6877    2.3533    0.2514 H   0  0  0  0  0  0  0  0  0  0  0  0
  1  2  1  0
  2  3  1  0
  3  4  2  0
  4  5  1  0
  5  6  1  0
  6  7  2  0
  6  8  1  0
  5  9  2  0
  9 10  1  0
 10 11  1  0
 10  2  2  0
  1 12  1  0
  1 13  1  0
  3 14  1  0
  4 15  1  0
  9 16  1  0
M  CHG  2   6   1   8  -1
M  END
$$$$
