
     RDKit          3D

 20 21  0  0  0  0  0  0  0  0999 V2000
    3.7653    1.5362    0.0967 O   0  0  0  0  0  0  0  0  0  0  0  0
    3.4708    0.3428    0.2553 N   0  0  0  0  0  0  0  0  0  0  0  0
    4.2924   -0.5605    0.4682 O   0  0  0  0  0  0  0  0  0  0  0  0
    2.0517   -0.0267    0.1865 C   0  0  0  0  0  0  0  0  0  0  0  0
    1.6754   -1.3626    0.3599 C   0  0  0  0  0  0  0  0  0  0  0  0
    0.3240   -1.7089    0.2934 C   0  0  0  0  0  0  0  0  0  0  0  0
   -0.6577   -0.7326    0.0550 C   0  0  0  0  0  0  0  0  0  0  0  0
   -2.0182   -1.0706   -0.0135 C   0  0  0  0  0  0  0  0  0  0  0  0
   -2.9852   -0.0926   -0.2509 C   0  0  0  0  0  0  0  0  0  0  0  0
   -2.6052    1.2351   -0.4228 C   0  0  0  0  0  0  0  0  0  0  0  0
   -1.2568    1.5894   -0.3578 C   0  0  0  0  0  0  0  0  0  0  0  0
   -0.2709    0.6186   -0.1199 C   0  0  0  0  0  0  0  0  0  0  0  0
    1.0886    0.9629   -0.0524 C   0  0  0  0  0  0  0  0  0  0  0  0
    2.4130   -2.1405    0.5459 H   0  0  0  0  0  0  0  0  0  0  0  0
    0.0404   -2.7511    0.4296 H   0  0  0  0  0  0  0  0  0  0  0  0
   -2.3378   -2.1023    0.1178 H   0  0  0  0  0  0  0  0  0  0  0  0
   -4.0355   -0.3685   -0.3016 H   0  0  0  0  0  0  0  0  0  0  0  0
   -3.3584    1.9969   -0.6077 H   0  0  0  0  0  0  0  0  0  0  0  0
   -0.9828    2.6336   -0.4952 H   0  0  0  0  0  0  0  0  0  0  0  0
    1.3867    2.0013   -0.1867 H   0  0  0  0  0  0  0  0  0  0  0  0
  1  2  2  0
  2  3  1  0
  2  4  1  0
  4  5  1  0
  5  6  2  0
  6  7  1  0
  7  8  2  0
  8  9  1  0
  9 10  2  0
 10 11  1  0
 11 12  2  0
 12 13  1  0
 13  4  2  0
 12  7  1  0
  5 14  1  0
  6 15  1  0
  8 16  1  0
  9 17  1  0
 10 18  1  0
 11 19  1  0
 13 20  1  0
M  CHG  2   2   1   3  -1
M  END
$$$$
