
     RDKit          3D

 39 39  0  0  0  0  0  0  0  0999 V2000
    3.8195   -0.7762    1.8349 C   0  0  0  0  0  0  0  0  0  0  0  0
    3.3998   -0.6825    0.3943 C   0  0  0  0  0  0  0  0  0  0  0  0
    4.1687   -0.8309   -0.5477 O   0  0  0  0  0  0  0  0  0  0  0  0
    1.9738   -0.3954    0.1221 C   0  0  0  0  0  0  0  0  0  0  0  0
    1.0753   -1.4605   -0.0303 C   0  0  0  0  0  0  0  0  0  0  0  0
    1.5622   -2.8948    0.0331 C   0  0  0  0  0  0  0  0  0  0  0  0
   -0.3073   -1.1541   -0.2149 C   0  0  0  0  0  0  0  0  0  0  0  0
   -1.1541   -2.3190   -0.4310 N   0  0  0  0  0  0  0  0  0  0  0  0
   -1.4436   -2.9915    0.5677 O   0  0  0  0  0  0  0  0  0  0  0  0
   -1.4742   -2.5693   -1.5988 O   0  0  0  0  0  0  0  0  0  0  0  0
   -0.8474    0.1712   -0.2511 C   0  0  0  0  0  0  0  0  0  0  0  0
   -2.3869    0.4797   -0.3622 C   0  0  0  0  0  0  0  0  0  0  0  0
   -2.8381    1.7995    0.3276 C   0  0  0  0  0  0  0  0  0  0  0  0
   -3.3127   -0.5743    0.3111 C   0  0  0  0  0  0  0  0  0  0  0  0
   -2.7747    0.5676   -1.8534 C   0  0  0  0  0  0  0  0  0  0  0  0
    0.1606    1.1863   -0.1988 C   0  0  0  0  0  0  0  0  0  0  0  0
   -0.1726    2.5900   -0.3978 N   0  0  0  0  0  0  0  0  0  0  0  0
   -0.3683    2.9591   -1.5615 O   0  0  0  0  0  0  0  0  0  0  0  0
   -0.1843    3.3091    0.6102 O   0  0  0  0  0  0  0  0  0  0  0  0
    1.5542    0.9351   -0.0136 C   0  0  0  0  0  0  0  0  0  0  0  0
    2.5548    2.0712    0.0671 C   0  0  0  0  0  0  0  0  0  0  0  0
    4.5818   -0.0194    2.0368 H   0  0  0  0  0  0  0  0  0  0  0  0
    2.9727   -0.6046    2.5056 H   0  0  0  0  0  0  0  0  0  0  0  0
    4.2196   -1.7749    2.0281 H   0  0  0  0  0  0  0  0  0  0  0  0
    1.3182   -3.3268    1.0088 H   0  0  0  0  0  0  0  0  0  0  0  0
    2.6416   -2.9857   -0.1137 H   0  0  0  0  0  0  0  0  0  0  0  0
    1.1129   -3.5015   -0.7596 H   0  0  0  0  0  0  0  0  0  0  0  0
   -2.4137    1.8890    1.3337 H   0  0  0  0  0  0  0  0  0  0  0  0
   -3.9292    1.8525    0.4346 H   0  0  0  0  0  0  0  0  0  0  0  0
   -2.5956    2.6908   -0.2546 H   0  0  0  0  0  0  0  0  0  0  0  0
   -4.3406   -0.2051    0.4202 H   0  0  0  0  0  0  0  0  0  0  0  0
   -2.9581   -0.8334    1.3148 H   0  0  0  0  0  0  0  0  0  0  0  0
   -3.4299   -1.4824   -0.2836 H   0  0  0  0  0  0  0  0  0  0  0  0
   -3.8438    0.7810   -1.9704 H   0  0  0  0  0  0  0  0  0  0  0  0
   -2.2263    1.3587   -2.3732 H   0  0  0  0  0  0  0  0  0  0  0  0
   -2.5692   -0.3658   -2.3856 H   0  0  0  0  0  0  0  0  0  0  0  0
    3.5873    1.7416   -0.0753 H   0  0  0  0  0  0  0  0  0  0  0  0
    2.4890    2.5549    1.0468 H   0  0  0  0  0  0  0  0  0  0  0  0
    2.3785    2.8109   -0.7204 H   0  0  0  0  0  0  0  0  0  0  0  0
  1  2  1  0
  2  3  2  0
  2  4  1  0
  4  5  2  0
  5  6  1  0
  5  7  1  0
  7  8  1  0
  8  9  2  0
  8 10  1  0
  7 11  2  0
 11 12  1  0
 12 13  1  0
 12 14  1  0
 12 15  1  0
 11 16  1  0
 16 17  1  0
 17 18  2  0
 17 19  1  0
 16 20  2  0
 20 21  1  0
 20  4  1  0
  1 22  1  0
  1 23  1  0
  1 24  1  0
  6 25  1  0
  6 26  1  0
  6 27  1  0
 13 28  1  0
 13 29  1  0
 13 30  1  0
 14 31  1  0
 14 32  1  0
 14 33  1  0
 15 34  1  0
 15 35  1  0
 15 36  1  0
 21 37  1  0
 21 38  1  0
 21 39  1  0
M  CHG  4   8   1  10  -1  17   1  19  -1
M  END
$$$$
