
     RDKit          3D

 33 34  0  0  0  0  0  0  0  0999 V2000
    5.1138   -1.7890    0.7544 O   0  0  0  0  0  0  0  0  0  0  0  0
    3.9108   -2.0710    0.6739 N   0  0  0  0  0  0  0  0  0  0  0  0
    3.4447   -3.2128    0.7856 O   0  0  0  0  0  0  0  0  0  0  0  0
    2.9695   -0.9688    0.4280 C   0  0  0  0  0  0  0  0  0  0  0  0
    1.5972   -1.2379    0.3290 C   0  0  0  0  0  0  0  0  0  0  0  0
    0.6712   -0.2008    0.0935 C   0  0  0  0  0  0  0  0  0  0  0  0
   -0.8063   -0.5739   -0.0015 C   0  0  0  0  0  0  0  0  0  0  0  0
   -1.6554    0.0518    1.1194 C   0  0  0  0  0  0  0  0  0  0  0  0
   -3.1150   -0.3913    1.0250 C   0  0  0  0  0  0  0  0  0  0  0  0
   -3.7029   -0.1054   -0.3540 C   0  0  0  0  0  0  0  0  0  0  0  0
   -2.8678   -0.7359   -1.4649 C   0  0  0  0  0  0  0  0  0  0  0  0
   -1.4060   -0.2956   -1.3914 C   0  0  0  0  0  0  0  0  0  0  0  0
    1.1559    1.1165   -0.0406 C   0  0  0  0  0  0  0  0  0  0  0  0
    0.2227    2.0930   -0.2683 O   0  0  0  0  0  0  0  0  0  0  0  0
    2.5383    1.3777    0.0606 C   0  0  0  0  0  0  0  0  0  0  0  0
    3.0642    2.7422   -0.0760 N   0  0  0  0  0  0  0  0  0  0  0  0
    4.2870    2.9067    0.0227 O   0  0  0  0  0  0  0  0  0  0  0  0
    2.2474    3.6532   -0.2832 O   0  0  0  0  0  0  0  0  0  0  0  0
    3.4502    0.3366    0.2951 C   0  0  0  0  0  0  0  0  0  0  0  0
    1.2359   -2.2616    0.4347 H   0  0  0  0  0  0  0  0  0  0  0  0
   -0.8756   -1.6626    0.1422 H   0  0  0  0  0  0  0  0  0  0  0  0
   -1.6216    1.1460    1.0781 H   0  0  0  0  0  0  0  0  0  0  0  0
   -1.2528   -0.2344    2.0990 H   0  0  0  0  0  0  0  0  0  0  0  0
   -3.1849   -1.4655    1.2364 H   0  0  0  0  0  0  0  0  0  0  0  0
   -3.7057    0.1231    1.7914 H   0  0  0  0  0  0  0  0  0  0  0  0
   -3.7580    0.9791   -0.5095 H   0  0  0  0  0  0  0  0  0  0  0  0
   -4.7286   -0.4878   -0.4029 H   0  0  0  0  0  0  0  0  0  0  0  0
   -3.2855   -0.4625   -2.4404 H   0  0  0  0  0  0  0  0  0  0  0  0
   -2.9242   -1.8288   -1.3890 H   0  0  0  0  0  0  0  0  0  0  0  0
   -0.8297   -0.8239   -2.1611 H   0  0  0  0  0  0  0  0  0  0  0  0
   -1.3517    0.7699   -1.6402 H   0  0  0  0  0  0  0  0  0  0  0  0
    0.6451    2.9744   -0.3484 H   0  0  0  0  0  0  0  0  0  0  0  0
    4.5178    0.5393    0.3731 H   0  0  0  0  0  0  0  0  0  0  0  0
  1  2  2  0
  2  3  1  0
  2  4  1  0
  4  5  1  0
  5  6  2  0
  6  7  1  0
  7  8  1  0
  8  9  1  0
  9 10  1  0
 10 11  1  0
 11 12  1  0
  6 13  1  0
 13 14  1  0
 13 15  2  0
 15 16  1  0
 16 17  2  0
 16 18  1  0
 15 19  1  0
 19  4  2  0
 12  7  1  0
  5 20  1  0
  7 21  1  0
  8 22  1  0
  8 23  1  0
  9 24  1  0
  9 25  1  0
 10 26  1  0
 10 27  1  0
 11 28  1  0
 11 29  1  0
 12 30  1  0
 12 31  1  0
 14 32  1  0
 19 33  1  0
M  CHG  4   2   1   3  -1  16   1  18  -1
M  END
$$$$
