
     RDKit          3D

 19 19  0  0  0  0  0  0  0  0999 V2000
   -1.4231    1.8039    0.6865 C   0  0  0  0  0  0  0  0  0  0  0  0
   -0.5493    0.6581    0.2540 C   0  0  0  0  0  0  0  0  0  0  0  0
    0.8450    0.7680    0.4125 C   0  0  0  0  0  0  0  0  0  0  0  0
    1.6933   -0.2840    0.0242 C   0  0  0  0  0  0  0  0  0  0  0  0
    3.1466   -0.1517    0.2048 N   0  0  0  0  0  0  0  0  0  0  0  0
    3.5694    0.8929    0.7190 O   0  0  0  0  0  0  0  0  0  0  0  0
    3.8600   -1.0931   -0.1683 O   0  0  0  0  0  0  0  0  0  0  0  0
    1.1686   -1.4586   -0.5319 C   0  0  0  0  0  0  0  0  0  0  0  0
   -0.2113   -1.5781   -0.7077 C   0  0  0  0  0  0  0  0  0  0  0  0
   -1.0566   -0.5226   -0.3255 C   0  0  0  0  0  0  0  0  0  0  0  0
   -2.4892   -0.6988   -0.5521 N   0  0  0  0  0  0  0  0  0  0  0  0
   -3.0951    0.2167   -1.1234 O   0  0  0  0  0  0  0  0  0  0  0  0
   -2.9902   -1.7659   -0.1734 O   0  0  0  0  0  0  0  0  0  0  0  0
   -0.8815    2.4849    1.3524 H   0  0  0  0  0  0  0  0  0  0  0  0
   -1.7550    2.3777   -0.1841 H   0  0  0  0  0  0  0  0  0  0  0  0
   -2.2922    1.4434    1.2459 H   0  0  0  0  0  0  0  0  0  0  0  0
    1.2640    1.6773    0.8444 H   0  0  0  0  0  0  0  0  0  0  0  0
    1.8159   -2.2810   -0.8330 H   0  0  0  0  0  0  0  0  0  0  0  0
   -0.6193   -2.4890   -1.1443 H   0  0  0  0  0  0  0  0  0  0  0  0
  1  2  1  0
  2  3  1  0
  3  4  2  0
  4  5  1  0
  5  6  2  0
  5  7  1  0
  4  8  1  0
  8  9  2  0
  9 10  1  0
 10 11  1  0
 11 12  2  0
 11 13  1  0
 10  2  2  0
  1 14  1  0
  1 15  1  0
  1 16  1  0
  3 17  1  0
  8 18  1  0
  9 19  1  0
M  CHG  4   5   1   7  -1  11   1  13  -1
M  END
$$$$
