
     RDKit          3D

 52 53  0  0  0  0  0  0  0  0999 V2000
   -5.0323    0.0615    1.3070 C   0  0  0  0  0  0  0  0  0  0  0  0
   -3.6501    0.2671    1.5979 O   0  0  0  0  0  0  0  0  0  0  0  0
   -3.0909    1.2808    0.8955 C   0  0  0  0  0  0  0  0  0  0  0  0
   -3.6462    2.0320    0.1114 O   0  0  0  0  0  0  0  0  0  0  0  0
   -1.6653    1.3604    1.2486 C   0  0  0  0  0  0  0  0  0  0  0  0
   -1.2151    2.2836    2.1233 C   0  0  0  0  0  0  0  0  0  0  0  0
   -2.0762    3.3207    2.7957 C   0  0  0  0  0  0  0  0  0  0  0  0
    0.1294    2.2916    2.4618 N   0  0  0  0  0  0  0  0  0  0  0  0
    1.0179    1.2731    2.1363 C   0  0  0  0  0  0  0  0  0  0  0  0
    2.3667    1.3516    2.8096 C   0  0  0  0  0  0  0  0  0  0  0  0
    0.6448    0.2998    1.2664 C   0  0  0  0  0  0  0  0  0  0  0  0
    1.5074   -0.8931    1.0213 C   0  0  0  0  0  0  0  0  0  0  0  0
    2.4872   -1.1985    1.6825 O   0  0  0  0  0  0  0  0  0  0  0  0
    1.0283   -1.6111   -0.0245 O   0  0  0  0  0  0  0  0  0  0  0  0
    1.7465   -2.8133   -0.3521 C   0  0  0  0  0  0  0  0  0  0  0  0
    2.9562   -2.5162   -1.2487 C   0  0  0  0  0  0  0  0  0  0  0  0
    2.5388   -1.8056   -2.5372 C   0  0  0  0  0  0  0  0  0  0  0  0
    3.7046   -3.8081   -1.5708 C   0  0  0  0  0  0  0  0  0  0  0  0
   -0.7368    0.3506    0.5884 C   0  0  0  0  0  0  0  0  0  0  0  0
   -0.6180    0.6521   -0.9169 C   0  0  0  0  0  0  0  0  0  0  0  0
    0.0100    1.8480   -1.3293 C   0  0  0  0  0  0  0  0  0  0  0  0
    0.1637    2.1654   -2.6828 C   0  0  0  0  0  0  0  0  0  0  0  0
   -0.3047    1.2995   -3.6666 C   0  0  0  0  0  0  0  0  0  0  0  0
   -0.9353    0.1144   -3.2992 C   0  0  0  0  0  0  0  0  0  0  0  0
   -1.0936   -0.1981   -1.9378 C   0  0  0  0  0  0  0  0  0  0  0  0
   -1.7709   -1.4530   -1.6418 N   0  0  0  0  0  0  0  0  0  0  0  0
   -2.7555   -1.4080   -0.8936 O   0  0  0  0  0  0  0  0  0  0  0  0
   -1.3306   -2.4761   -2.1843 O   0  0  0  0  0  0  0  0  0  0  0  0
   -5.3646   -0.8281    1.8493 H   0  0  0  0  0  0  0  0  0  0  0  0
   -5.6216    0.9179    1.6484 H   0  0  0  0  0  0  0  0  0  0  0  0
   -5.1848   -0.1097    0.2366 H   0  0  0  0  0  0  0  0  0  0  0  0
   -1.9868    3.2341    3.8839 H   0  0  0  0  0  0  0  0  0  0  0  0
   -3.1379    3.2332    2.5500 H   0  0  0  0  0  0  0  0  0  0  0  0
   -1.7493    4.3244    2.5036 H   0  0  0  0  0  0  0  0  0  0  0  0
    0.4067    2.9208    3.2127 H   0  0  0  0  0  0  0  0  0  0  0  0
    2.4037    0.6811    3.6736 H   0  0  0  0  0  0  0  0  0  0  0  0
    2.5683    2.3674    3.1687 H   0  0  0  0  0  0  0  0  0  0  0  0
    3.1808    1.1117    2.1188 H   0  0  0  0  0  0  0  0  0  0  0  0
    2.0445   -3.3408    0.5624 H   0  0  0  0  0  0  0  0  0  0  0  0
    1.0410   -3.4703   -0.8730 H   0  0  0  0  0  0  0  0  0  0  0  0
    3.6396   -1.8451   -0.7142 H   0  0  0  0  0  0  0  0  0  0  0  0
    3.4064   -1.6299   -3.1824 H   0  0  0  0  0  0  0  0  0  0  0  0
    1.8118   -2.3996   -3.1018 H   0  0  0  0  0  0  0  0  0  0  0  0
    2.0898   -0.8318   -2.3202 H   0  0  0  0  0  0  0  0  0  0  0  0
    4.5924   -3.6025   -2.1782 H   0  0  0  0  0  0  0  0  0  0  0  0
    4.0359   -4.3048   -0.6526 H   0  0  0  0  0  0  0  0  0  0  0  0
    3.0699   -4.5079   -2.1253 H   0  0  0  0  0  0  0  0  0  0  0  0
   -1.1799   -0.6362    0.7609 H   0  0  0  0  0  0  0  0  0  0  0  0
    0.3877    2.5552   -0.5906 H   0  0  0  0  0  0  0  0  0  0  0  0
    0.6508    3.0962   -2.9664 H   0  0  0  0  0  0  0  0  0  0  0  0
   -0.1820    1.5511   -4.7175 H   0  0  0  0  0  0  0  0  0  0  0  0
   -1.3025   -0.5577   -4.0727 H   0  0  0  0  0  0  0  0  0  0  0  0
  1  2  1  0
  2  3  1  0
  3  4  2  0
  3  5  1  0
  5  6  2  0
  6  7  1  0
  6  8  1  0
  8  9  1  0
  9 10  1  0
  9 11  2  0
 11 12  1  0
 12 13  2  0
 12 14  1  0
 14 15  1  0
 15 16  1  0
 16 17  1  0
 16 18  1  0
 11 19  1  0
 19 20  1  0
 20 21  2  0
 21 22  1  0
 22 23  2  0
 23 24  1  0
 24 25  2  0
 25 26  1  0
 26 27  2  0
 26 28  1  0
 19  5  1  0
 25 20  1  0
  1 29  1  0
  1 30  1  0
  1 31  1  0
  7 32  1  0
  7 33  1  0
  7 34  1  0
  8 35  1  0
 10 36  1  0
 10 37  1  0
 10 38  1  0
 15 39  1  0
 15 40  1  0
 16 41  1  0
 17 42  1  0
 17 43  1  0
 17 44  1  0
 18 45  1  0
 18 46  1  0
 18 47  1  0
 19 48  1  0
 21 49  1  0
 22 50  1  0
 23 51  1  0
 24 52  1  0
M  CHG  2  26   1  28  -1
M  END
$$$$
