
     RDKit          3D

 41 43  0  0  0  0  0  0  0  0999 V2000
   -2.0605    3.7190   -1.8044 C   0  0  0  0  0  0  0  0  0  0  0  0
   -1.6235    3.1018   -0.5015 C   0  0  0  0  0  0  0  0  0  0  0  0
   -2.1779    3.3991    0.5559 O   0  0  0  0  0  0  0  0  0  0  0  0
   -0.4333    2.1596   -0.5652 C   0  0  0  0  0  0  0  0  0  0  0  0
   -0.4897    1.0655    0.5234 C   0  0  0  0  0  0  0  0  0  0  0  0
   -1.6212    0.0709    0.2392 C   0  0  0  0  0  0  0  0  0  0  0  0
   -2.6945   -0.0327    1.1408 C   0  0  0  0  0  0  0  0  0  0  0  0
   -3.7400   -0.9304    0.9116 C   0  0  0  0  0  0  0  0  0  0  0  0
   -3.7149   -1.7378   -0.2299 C   0  0  0  0  0  0  0  0  0  0  0  0
   -4.8094   -2.6836   -0.4788 N   0  0  0  0  0  0  0  0  0  0  0  0
   -5.7321   -2.7327    0.3467 O   0  0  0  0  0  0  0  0  0  0  0  0
   -4.7477   -3.3784   -1.5041 O   0  0  0  0  0  0  0  0  0  0  0  0
   -2.6534   -1.6511   -1.1392 C   0  0  0  0  0  0  0  0  0  0  0  0
   -1.6126   -0.7496   -0.9015 C   0  0  0  0  0  0  0  0  0  0  0  0
    0.8267    0.3329    0.8026 C   0  0  0  0  0  0  0  0  0  0  0  0
    1.8304    0.1292   -0.0703 C   0  0  0  0  0  0  0  0  0  0  0  0
    1.7146    0.5083   -1.3935 O   0  0  0  0  0  0  0  0  0  0  0  0
    3.0666   -0.5536    0.3288 C   0  0  0  0  0  0  0  0  0  0  0  0
    4.2094   -0.6645   -0.4768 C   0  0  0  0  0  0  0  0  0  0  0  0
    5.3409   -1.3547   -0.0232 C   0  0  0  0  0  0  0  0  0  0  0  0
    5.3511   -1.9327    1.2448 C   0  0  0  0  0  0  0  0  0  0  0  0
    4.2371   -1.8056    2.0677 C   0  0  0  0  0  0  0  0  0  0  0  0
    3.1202   -1.1112    1.6017 C   0  0  0  0  0  0  0  0  0  0  0  0
    2.0523   -0.9664    2.4986 O   0  0  0  0  0  0  0  0  0  0  0  0
    0.9482   -0.1829    2.1985 C   0  0  0  0  0  0  0  0  0  0  0  0
    0.0997    0.0418    3.0551 O   0  0  0  0  0  0  0  0  0  0  0  0
   -1.2382    4.3018   -2.2267 H   0  0  0  0  0  0  0  0  0  0  0  0
   -2.3635    2.9319   -2.4994 H   0  0  0  0  0  0  0  0  0  0  0  0
   -2.9131    4.3814   -1.6312 H   0  0  0  0  0  0  0  0  0  0  0  0
    0.4610    2.7830   -0.4461 H   0  0  0  0  0  0  0  0  0  0  0  0
   -0.4139    1.7244   -1.5702 H   0  0  0  0  0  0  0  0  0  0  0  0
   -0.7400    1.6030    1.4488 H   0  0  0  0  0  0  0  0  0  0  0  0
   -2.7200    0.5910    2.0353 H   0  0  0  0  0  0  0  0  0  0  0  0
   -4.5554   -0.9849    1.6298 H   0  0  0  0  0  0  0  0  0  0  0  0
   -2.6208   -2.2754   -2.0297 H   0  0  0  0  0  0  0  0  0  0  0  0
   -0.7929   -0.6964   -1.6150 H   0  0  0  0  0  0  0  0  0  0  0  0
    2.2560   -0.0881   -1.9387 H   0  0  0  0  0  0  0  0  0  0  0  0
    4.2625   -0.2022   -1.4584 H   0  0  0  0  0  0  0  0  0  0  0  0
    6.2203   -1.4330   -0.6590 H   0  0  0  0  0  0  0  0  0  0  0  0
    6.2311   -2.4657    1.5964 H   0  0  0  0  0  0  0  0  0  0  0  0
    4.2404   -2.2310    3.0675 H   0  0  0  0  0  0  0  0  0  0  0  0
  1  2  1  0
  2  3  2  0
  2  4  1  0
  4  5  1  0
  5  6  1  0
  6  7  1  0
  7  8  2  0
  8  9  1  0
  9 10  1  0
 10 11  2  0
 10 12  1  0
  9 13  2  0
 13 14  1  0
  5 15  1  0
 15 16  2  0
 16 17  1  0
 16 18  1  0
 18 19  2  0
 19 20  1  0
 20 21  2  0
 21 22  1  0
 22 23  2  0
 23 24  1  0
 24 25  1  0
 25 26  2  0
 14  6  2  0
 25 15  1  0
 23 18  1  0
  1 27  1  0
  1 28  1  0
  1 29  1  0
  4 30  1  0
  4 31  1  0
  5 32  1  0
  7 33  1  0
  8 34  1  0
 13 35  1  0
 14 36  1  0
 17 37  1  0
 19 38  1  0
 20 39  1  0
 21 40  1  0
 22 41  1  0
M  CHG  2  10   1  12  -1
M  END
$$$$
