
     RDKit          3D

 20 20  0  0  0  0  0  0  0  0999 V2000
    3.2043   -0.5558   -0.8471 O   0  0  0  0  0  0  0  0  0  0  0  0
    2.4517    0.3639   -0.5776 C   0  0  0  0  0  0  0  0  0  0  0  0
    2.8546    1.6420   -0.5638 O   0  0  0  0  0  0  0  0  0  0  0  0
    1.0210    0.1888   -0.2365 C   0  0  0  0  0  0  0  0  0  0  0  0
    0.2120    1.3003    0.0621 C   0  0  0  0  0  0  0  0  0  0  0  0
   -1.1439    1.1175    0.3797 C   0  0  0  0  0  0  0  0  0  0  0  0
   -1.9822    2.2845    0.6885 N   0  0  0  0  0  0  0  0  0  0  0  0
   -3.1611    2.0739    1.0013 O   0  0  0  0  0  0  0  0  0  0  0  0
   -1.4570    3.4028    0.6174 O   0  0  0  0  0  0  0  0  0  0  0  0
   -1.7052   -0.1623    0.4068 C   0  0  0  0  0  0  0  0  0  0  0  0
   -0.8798   -1.2522    0.1109 C   0  0  0  0  0  0  0  0  0  0  0  0
   -1.4694   -2.5718    0.1483 N   0  0  0  0  0  0  0  0  0  0  0  0
   -2.1977   -2.8803   -0.8037 O   0  0  0  0  0  0  0  0  0  0  0  0
   -1.2569   -3.2529    1.1592 O   0  0  0  0  0  0  0  0  0  0  0  0
    0.4715   -1.1037   -0.2149 C   0  0  0  0  0  0  0  0  0  0  0  0
    1.2064   -2.2194   -0.5129 O   0  0  0  0  0  0  0  0  0  0  0  0
    3.8066    1.6194   -0.8028 H   0  0  0  0  0  0  0  0  0  0  0  0
    0.6402    2.3024    0.0445 H   0  0  0  0  0  0  0  0  0  0  0  0
   -2.7548   -0.3205    0.6506 H   0  0  0  0  0  0  0  0  0  0  0  0
    2.1396   -1.9765   -0.7102 H   0  0  0  0  0  0  0  0  0  0  0  0
  1  2  2  0
  2  3  1  0
  2  4  1  0
  4  5  2  0
  5  6  1  0
  6  7  1  0
  7  8  2  0
  7  9  1  0
  6 10  2  0
 10 11  1  0
 11 12  1  0
 12 13  2  0
 12 14  1  0
 11 15  2  0
 15 16  1  0
 15  4  1  0
  3 17  1  0
  5 18  1  0
 10 19  1  0
 16 20  1  0
M  CHG  4   7   1   9  -1  12   1  14  -1
M  END
$$$$
