
     RDKit          3D

 37 37  0  0  0  0  0  0  0  0999 V2000
    1.5818    3.6762   -0.1317 C   0  0  0  0  0  0  0  0  0  0  0  0
    1.1575    2.3480    0.4172 C   0  0  0  0  0  0  0  0  0  0  0  0
    0.9749    2.1065    1.6026 O   0  0  0  0  0  0  0  0  0  0  0  0
    0.9864    1.4508   -0.6378 O   0  0  0  0  0  0  0  0  0  0  0  0
    0.6595    0.1614   -0.1970 C   0  0  0  0  0  0  0  0  0  0  0  0
   -0.6884   -0.2596   -0.1547 C   0  0  0  0  0  0  0  0  0  0  0  0
   -1.8860    0.5883   -0.6506 C   0  0  0  0  0  0  0  0  0  0  0  0
   -2.2996    1.5893    0.4446 C   0  0  0  0  0  0  0  0  0  0  0  0
   -1.5741    1.3568   -1.9567 C   0  0  0  0  0  0  0  0  0  0  0  0
   -3.1375   -0.2733   -0.9751 C   0  0  0  0  0  0  0  0  0  0  0  0
   -0.9082   -1.5463    0.3835 C   0  0  0  0  0  0  0  0  0  0  0  0
    0.1550   -2.3833    0.7897 C   0  0  0  0  0  0  0  0  0  0  0  0
   -0.2089   -3.7112    1.2755 N   0  0  0  0  0  0  0  0  0  0  0  0
    0.3074   -4.6826    0.7090 O   0  0  0  0  0  0  0  0  0  0  0  0
   -1.0260   -3.7653    2.2032 O   0  0  0  0  0  0  0  0  0  0  0  0
    1.4976   -1.9924    0.6982 C   0  0  0  0  0  0  0  0  0  0  0  0
    2.6331   -2.8944    1.1011 C   0  0  0  0  0  0  0  0  0  0  0  0
    1.7149   -0.7100    0.1680 C   0  0  0  0  0  0  0  0  0  0  0  0
    3.0735   -0.2831   -0.1116 N   0  0  0  0  0  0  0  0  0  0  0  0
    3.6110   -0.7705   -1.1142 O   0  0  0  0  0  0  0  0  0  0  0  0
    3.5917    0.5248    0.6678 O   0  0  0  0  0  0  0  0  0  0  0  0
    1.7798    4.3627    0.6964 H   0  0  0  0  0  0  0  0  0  0  0  0
    0.7837    4.0923   -0.7511 H   0  0  0  0  0  0  0  0  0  0  0  0
    2.5007    3.5610   -0.7120 H   0  0  0  0  0  0  0  0  0  0  0  0
   -3.1983    2.1451    0.1522 H   0  0  0  0  0  0  0  0  0  0  0  0
   -2.5176    1.0784    1.3898 H   0  0  0  0  0  0  0  0  0  0  0  0
   -1.5202    2.3287    0.6432 H   0  0  0  0  0  0  0  0  0  0  0  0
   -2.4840    1.7896   -2.3902 H   0  0  0  0  0  0  0  0  0  0  0  0
   -0.8970    2.2006   -1.8020 H   0  0  0  0  0  0  0  0  0  0  0  0
   -1.1314    0.6953   -2.7102 H   0  0  0  0  0  0  0  0  0  0  0  0
   -2.8997   -1.0702   -1.6894 H   0  0  0  0  0  0  0  0  0  0  0  0
   -3.5686   -0.7306   -0.0775 H   0  0  0  0  0  0  0  0  0  0  0  0
   -3.9365    0.3353   -1.4164 H   0  0  0  0  0  0  0  0  0  0  0  0
   -1.9191   -1.9370    0.4918 H   0  0  0  0  0  0  0  0  0  0  0  0
    2.3658   -3.5107    1.9656 H   0  0  0  0  0  0  0  0  0  0  0  0
    2.9118   -3.5446    0.2662 H   0  0  0  0  0  0  0  0  0  0  0  0
    3.5151   -2.3259    1.4126 H   0  0  0  0  0  0  0  0  0  0  0  0
  1  2  1  0
  2  3  2  0
  2  4  1  0
  4  5  1  0
  5  6  2  0
  6  7  1  0
  7  8  1  0
  7  9  1  0
  7 10  1  0
  6 11  1  0
 11 12  2  0
 12 13  1  0
 13 14  2  0
 13 15  1  0
 12 16  1  0
 16 17  1  0
 16 18  2  0
 18 19  1  0
 19 20  2  0
 19 21  1  0
 18  5  1  0
  1 22  1  0
  1 23  1  0
  1 24  1  0
  8 25  1  0
  8 26  1  0
  8 27  1  0
  9 28  1  0
  9 29  1  0
  9 30  1  0
 10 31  1  0
 10 32  1  0
 10 33  1  0
 11 34  1  0
 17 35  1  0
 17 36  1  0
 17 37  1  0
M  CHG  4  13   1  15  -1  19   1  21  -1
M  END
$$$$
