
     RDKit          3D

 23 23  0  0  0  0  0  0  0  0999 V2000
   -2.3584    0.4173   -0.6248 C   0  0  0  0  0  0  0  0  0  0  0  0
   -0.9833   -0.0304   -0.1958 C   0  0  0  0  0  0  0  0  0  0  0  0
    0.0922    0.8832   -0.1250 C   0  0  0  0  0  0  0  0  0  0  0  0
   -0.1058    2.3316   -0.3987 C   0  0  0  0  0  0  0  0  0  0  0  0
    0.8509    2.9458   -1.1554 N   0  0  0  0  0  0  0  0  0  0  0  0
   -1.0772    2.9385    0.0258 O   0  0  0  0  0  0  0  0  0  0  0  0
    1.3774    0.4589    0.2577 C   0  0  0  0  0  0  0  0  0  0  0  0
    1.6027   -0.8847    0.5796 C   0  0  0  0  0  0  0  0  0  0  0  0
    2.9485   -1.3197    0.9713 N   0  0  0  0  0  0  0  0  0  0  0  0
    3.8797   -0.5231    0.7946 O   0  0  0  0  0  0  0  0  0  0  0  0
    3.0668   -2.4564    1.4461 O   0  0  0  0  0  0  0  0  0  0  0  0
    0.5591   -1.8101    0.5442 C   0  0  0  0  0  0  0  0  0  0  0  0
   -0.7183   -1.3671    0.1718 C   0  0  0  0  0  0  0  0  0  0  0  0
   -1.7806   -2.3634    0.1821 N   0  0  0  0  0  0  0  0  0  0  0  0
   -1.6234   -3.3500   -0.5478 O   0  0  0  0  0  0  0  0  0  0  0  0
   -2.7419   -2.1580    0.9321 O   0  0  0  0  0  0  0  0  0  0  0  0
   -2.9288   -0.3973   -1.0818 H   0  0  0  0  0  0  0  0  0  0  0  0
   -2.9154    0.8009    0.2354 H   0  0  0  0  0  0  0  0  0  0  0  0
   -2.3017    1.1919   -1.3964 H   0  0  0  0  0  0  0  0  0  0  0  0
    0.6802    3.9122   -1.4078 H   0  0  0  0  0  0  0  0  0  0  0  0
    1.5693    2.4492   -1.6638 H   0  0  0  0  0  0  0  0  0  0  0  0
    2.1855    1.1859    0.3336 H   0  0  0  0  0  0  0  0  0  0  0  0
    0.7224   -2.8553    0.8060 H   0  0  0  0  0  0  0  0  0  0  0  0
  1  2  1  0
  2  3  1  0
  3  4  1  0
  4  5  1  0
  4  6  2  0
  3  7  2  0
  7  8  1  0
  8  9  1  0
  9 10  2  0
  9 11  1  0
  8 12  2  0
 12 13  1  0
 13 14  1  0
 14 15  2  0
 14 16  1  0
 13  2  2  0
  1 17  1  0
  1 18  1  0
  1 19  1  0
  5 20  1  0
  5 21  1  0
  7 22  1  0
 12 23  1  0
M  CHG  4   9   1  11  -1  14   1  16  -1
M  END
$$$$
