
     RDKit          3D

 16 16  0  0  0  0  0  0  0  0999 V2000
   -1.6430   -1.1392    1.0716 N   0  0  0  0  0  0  0  0  0  0  0  0
   -0.5336   -0.6336    0.3736 C   0  0  0  0  0  0  0  0  0  0  0  0
    0.6341   -1.4107    0.3501 C   0  0  0  0  0  0  0  0  0  0  0  0
    1.8220   -0.9213   -0.2040 C   0  0  0  0  0  0  0  0  0  0  0  0
    1.8718    0.3749   -0.7091 C   0  0  0  0  0  0  0  0  0  0  0  0
    3.3352    0.9710   -1.3871 Cl  0  0  0  0  0  0  0  0  0  0  0  0
    0.7501    1.1938   -0.6561 C   0  0  0  0  0  0  0  0  0  0  0  0
   -0.4383    0.6918   -0.0994 C   0  0  0  0  0  0  0  0  0  0  0  0
   -1.5932    1.5885   -0.0502 N   0  0  0  0  0  0  0  0  0  0  0  0
   -1.3700    2.8031    0.0582 O   0  0  0  0  0  0  0  0  0  0  0  0
   -2.7237    1.0845   -0.1437 O   0  0  0  0  0  0  0  0  0  0  0  0
   -2.5291   -0.6938    0.8145 H   0  0  0  0  0  0  0  0  0  0  0  0
   -1.7239   -2.1521    1.0689 H   0  0  0  0  0  0  0  0  0  0  0  0
    0.6307   -2.4140    0.7725 H   0  0  0  0  0  0  0  0  0  0  0  0
    2.7064   -1.5541   -0.2226 H   0  0  0  0  0  0  0  0  0  0  0  0
    0.8044    2.2112   -1.0373 H   0  0  0  0  0  0  0  0  0  0  0  0
  1  2  1  0
  2  3  1  0
  3  4  2  0
  4  5  1  0
  5  6  1  0
  5  7  2  0
  7  8  1  0
  8  9  1  0
  9 10  2  0
  9 11  1  0
  8  2  2  0
  1 12  1  0
  1 13  1  0
  3 14  1  0
  4 15  1  0
  7 16  1  0
M  CHG  2   9   1  11  -1
M  END
$$$$
