
     RDKit          3D

 26 26  0  0  0  0  0  0  0  0999 V2000
   -3.1136   -1.9463    0.3597 C   0  0  0  0  0  0  0  0  0  0  0  0
   -2.0250   -1.0424    0.3319 O   0  0  0  0  0  0  0  0  0  0  0  0
   -1.8406   -0.1062   -0.9785 P   0  0  0  0  0  0  0  0  0  0  0  0
   -1.6836   -1.0058   -2.6874 S   0  0  0  0  0  0  0  0  0  0  0  0
   -3.1154    0.8870   -0.8572 O   0  0  0  0  0  0  0  0  0  0  0  0
   -3.2328    1.7216    0.2777 C   0  0  0  0  0  0  0  0  0  0  0  0
   -0.6208    0.8644   -0.5486 O   0  0  0  0  0  0  0  0  0  0  0  0
    0.6675    0.4888   -0.2904 C   0  0  0  0  0  0  0  0  0  0  0  0
    1.1023   -0.8333   -0.1968 C   0  0  0  0  0  0  0  0  0  0  0  0
    2.4446   -1.1064    0.0787 C   0  0  0  0  0  0  0  0  0  0  0  0
    3.3353   -0.0422    0.2650 C   0  0  0  0  0  0  0  0  0  0  0  0
    4.7108   -0.3588    0.5661 N   0  0  0  0  0  0  0  0  0  0  0  0
    5.3757   -0.8767   -0.3400 O   0  0  0  0  0  0  0  0  0  0  0  0
    5.1021   -0.1332    1.7181 O   0  0  0  0  0  0  0  0  0  0  0  0
    2.9181    1.2830    0.1726 C   0  0  0  0  0  0  0  0  0  0  0  0
    3.9796    2.6299    0.3554 Cl  0  0  0  0  0  0  0  0  0  0  0  0
    1.5728    1.5412   -0.1047 C   0  0  0  0  0  0  0  0  0  0  0  0
   -3.2581   -2.2840    1.3891 H   0  0  0  0  0  0  0  0  0  0  0  0
   -4.0326   -1.4632    0.0173 H   0  0  0  0  0  0  0  0  0  0  0  0
   -2.8924   -2.8149   -0.2655 H   0  0  0  0  0  0  0  0  0  0  0  0
   -4.2388    2.1485    0.2930 H   0  0  0  0  0  0  0  0  0  0  0  0
   -3.0794    1.1551    1.1996 H   0  0  0  0  0  0  0  0  0  0  0  0
   -2.5080    2.5375    0.2170 H   0  0  0  0  0  0  0  0  0  0  0  0
    0.4264   -1.6736   -0.3293 H   0  0  0  0  0  0  0  0  0  0  0  0
    2.7846   -2.1381    0.1480 H   0  0  0  0  0  0  0  0  0  0  0  0
    1.2214    2.5682   -0.1851 H   0  0  0  0  0  0  0  0  0  0  0  0
  1  2  1  0
  2  3  1  0
  3  4  2  0
  3  5  1  0
  5  6  1  0
  3  7  1  0
  7  8  1  0
  8  9  1  0
  9 10  2  0
 10 11  1  0
 11 12  1  0
 12 13  2  0
 12 14  1  0
 11 15  2  0
 15 16  1  0
 15 17  1  0
 17  8  2  0
  1 18  1  0
  1 19  1  0
  1 20  1  0
  6 21  1  0
  6 22  1  0
  6 23  1  0
  9 24  1  0
 10 25  1  0
 17 26  1  0
M  CHG  2  12   1  14  -1
M  END
$$$$
