
     RDKit          3D

 29 29  0  0  0  0  0  0  0  0999 V2000
   -2.1726   -0.3878    2.0100 C   0  0  0  0  0  0  0  0  0  0  0  0
   -2.3001   -0.9876    0.6150 C   0  0  0  0  0  0  0  0  0  0  0  0
   -1.6716   -0.1030   -0.4825 C   0  0  0  0  0  0  0  0  0  0  0  0
   -1.9959   -0.6665   -1.8726 C   0  0  0  0  0  0  0  0  0  0  0  0
   -0.1627    0.0729   -0.3149 C   0  0  0  0  0  0  0  0  0  0  0  0
    0.6842   -1.0529   -0.3495 C   0  0  0  0  0  0  0  0  0  0  0  0
    2.0705   -0.9122   -0.1951 C   0  0  0  0  0  0  0  0  0  0  0  0
    2.9305   -2.1040   -0.2343 N   0  0  0  0  0  0  0  0  0  0  0  0
    2.3851   -3.2029   -0.4028 O   0  0  0  0  0  0  0  0  0  0  0  0
    4.1493   -1.9350   -0.0962 O   0  0  0  0  0  0  0  0  0  0  0  0
    2.6422    0.3493   -0.0043 C   0  0  0  0  0  0  0  0  0  0  0  0
    1.8080    1.4777    0.0309 C   0  0  0  0  0  0  0  0  0  0  0  0
    2.4272    2.7937    0.2326 N   0  0  0  0  0  0  0  0  0  0  0  0
    3.6573    2.8442    0.3594 O   0  0  0  0  0  0  0  0  0  0  0  0
    1.6763    3.7813    0.2641 O   0  0  0  0  0  0  0  0  0  0  0  0
    0.4132    1.3460   -0.1232 C   0  0  0  0  0  0  0  0  0  0  0  0
   -0.4538    2.4077   -0.0968 O   0  0  0  0  0  0  0  0  0  0  0  0
   -2.7006   -1.0136    2.7367 H   0  0  0  0  0  0  0  0  0  0  0  0
   -2.6095    0.6151    2.0473 H   0  0  0  0  0  0  0  0  0  0  0  0
   -1.1272   -0.3219    2.3261 H   0  0  0  0  0  0  0  0  0  0  0  0
   -1.8588   -1.9912    0.6146 H   0  0  0  0  0  0  0  0  0  0  0  0
   -3.3680   -1.1188    0.3986 H   0  0  0  0  0  0  0  0  0  0  0  0
   -2.1687    0.8728   -0.4271 H   0  0  0  0  0  0  0  0  0  0  0  0
   -3.0794   -0.6981   -2.0313 H   0  0  0  0  0  0  0  0  0  0  0  0
   -1.6128   -1.6843   -2.0038 H   0  0  0  0  0  0  0  0  0  0  0  0
   -1.5614   -0.0405   -2.6600 H   0  0  0  0  0  0  0  0  0  0  0  0
    0.2516   -2.0423   -0.4979 H   0  0  0  0  0  0  0  0  0  0  0  0
    3.7203    0.4511    0.1151 H   0  0  0  0  0  0  0  0  0  0  0  0
    0.0274    3.2510    0.0418 H   0  0  0  0  0  0  0  0  0  0  0  0
  1  2  1  0
  2  3  1  0
  3  4  1  0
  3  5  1  0
  5  6  2  0
  6  7  1  0
  7  8  1  0
  8  9  2  0
  8 10  1  0
  7 11  2  0
 11 12  1  0
 12 13  1  0
 13 14  2  0
 13 15  1  0
 12 16  2  0
 16 17  1  0
 16  5  1  0
  1 18  1  0
  1 19  1  0
  1 20  1  0
  2 21  1  0
  2 22  1  0
  3 23  1  0
  4 24  1  0
  4 25  1  0
  4 26  1  0
  6 27  1  0
 11 28  1  0
 17 29  1  0
M  CHG  4   8   1  10  -1  13   1  15  -1
M  END
$$$$
