
     RDKit          3D

 15 15  0  0  0  0  0  0  0  0999 V2000
    2.5872    0.4568    1.4191 O   0  0  0  0  0  0  0  0  0  0  0  0
    2.0273    0.2530    0.3618 C   0  0  0  0  0  0  0  0  0  0  0  0
    2.6676    0.1641   -0.8149 O   0  0  0  0  0  0  0  0  0  0  0  0
    0.5905    0.0661    0.1659 C   0  0  0  0  0  0  0  0  0  0  0  0
    0.0454   -1.2185    0.2731 C   0  0  0  0  0  0  0  0  0  0  0  0
    1.0097   -2.6110    0.6102 Cl  0  0  0  0  0  0  0  0  0  0  0  0
   -1.3272   -1.4054    0.1010 C   0  0  0  0  0  0  0  0  0  0  0  0
   -2.1505   -0.3130   -0.1736 C   0  0  0  0  0  0  0  0  0  0  0  0
   -1.6059    0.9718   -0.2761 C   0  0  0  0  0  0  0  0  0  0  0  0
   -2.7005    2.2666   -0.6170 Cl  0  0  0  0  0  0  0  0  0  0  0  0
   -0.2280    1.1724   -0.1046 C   0  0  0  0  0  0  0  0  0  0  0  0
    0.4541    2.7640   -0.2254 Cl  0  0  0  0  0  0  0  0  0  0  0  0
    3.6133    0.3021   -0.5935 H   0  0  0  0  0  0  0  0  0  0  0  0
   -1.7635   -2.3994    0.1800 H   0  0  0  0  0  0  0  0  0  0  0  0
   -3.2197   -0.4695   -0.3059 H   0  0  0  0  0  0  0  0  0  0  0  0
  1  2  2  0
  2  3  1  0
  2  4  1  0
  4  5  2  0
  5  6  1  0
  5  7  1  0
  7  8  2  0
  8  9  1  0
  9 10  1  0
  9 11  2  0
 11 12  1  0
 11  4  1  0
  3 13  1  0
  7 14  1  0
  8 15  1  0
M  END
$$$$
