
     RDKit          3D

 33 34  0  0  0  0  0  0  0  0999 V2000
   -4.2024   -2.3594   -0.4490 C   0  0  0  0  0  0  0  0  0  0  0  0
   -2.6522   -1.9372   -1.2106 S   0  0  0  0  0  0  0  0  0  0  0  0
   -2.8744   -0.8441   -2.1302 O   0  0  0  0  0  0  0  0  0  0  0  0
   -2.0151   -3.1684   -1.6244 O   0  0  0  0  0  0  0  0  0  0  0  0
   -1.7807   -1.4016    0.1488 N   0  0  0  0  0  0  0  0  0  0  0  0
   -1.3938   -0.0211    0.1351 C   0  0  0  0  0  0  0  0  0  0  0  0
   -2.3315    0.9643    0.4488 C   0  0  0  0  0  0  0  0  0  0  0  0
   -1.9765    2.3140    0.3707 C   0  0  0  0  0  0  0  0  0  0  0  0
   -0.6821    2.6701   -0.0393 C   0  0  0  0  0  0  0  0  0  0  0  0
   -0.3162    4.0892   -0.1342 N   0  0  0  0  0  0  0  0  0  0  0  0
   -1.1697    4.9260    0.1924 O   0  0  0  0  0  0  0  0  0  0  0  0
    0.8259    4.3655   -0.5263 O   0  0  0  0  0  0  0  0  0  0  0  0
    0.2629    1.6881   -0.3624 C   0  0  0  0  0  0  0  0  0  0  0  0
   -0.0963    0.3407   -0.2584 C   0  0  0  0  0  0  0  0  0  0  0  0
    0.7750   -0.6720   -0.6003 O   0  0  0  0  0  0  0  0  0  0  0  0
    2.0320   -0.6346   -0.0415 C   0  0  0  0  0  0  0  0  0  0  0  0
    3.1075   -0.8874   -0.8929 C   0  0  0  0  0  0  0  0  0  0  0  0
    4.4073   -0.8940   -0.3869 C   0  0  0  0  0  0  0  0  0  0  0  0
    4.6277   -0.6636    0.9713 C   0  0  0  0  0  0  0  0  0  0  0  0
    3.5491   -0.4349    1.8266 C   0  0  0  0  0  0  0  0  0  0  0  0
    2.2473   -0.4278    1.3237 C   0  0  0  0  0  0  0  0  0  0  0  0
   -4.6509   -1.4574   -0.0294 H   0  0  0  0  0  0  0  0  0  0  0  0
   -4.0261   -3.1080    0.3256 H   0  0  0  0  0  0  0  0  0  0  0  0
   -4.8550   -2.7724   -1.2214 H   0  0  0  0  0  0  0  0  0  0  0  0
   -0.9762   -2.0311    0.2492 H   0  0  0  0  0  0  0  0  0  0  0  0
   -3.3401    0.6918    0.7464 H   0  0  0  0  0  0  0  0  0  0  0  0
   -2.7197    3.0709    0.6154 H   0  0  0  0  0  0  0  0  0  0  0  0
    1.2604    1.9580   -0.7017 H   0  0  0  0  0  0  0  0  0  0  0  0
    2.9350   -1.0741   -1.9497 H   0  0  0  0  0  0  0  0  0  0  0  0
    5.2477   -1.0819   -1.0504 H   0  0  0  0  0  0  0  0  0  0  0  0
    5.6413   -0.6701    1.3649 H   0  0  0  0  0  0  0  0  0  0  0  0
    3.7240   -0.2684    2.8866 H   0  0  0  0  0  0  0  0  0  0  0  0
    1.4157   -0.2691    2.0035 H   0  0  0  0  0  0  0  0  0  0  0  0
  1  2  1  0
  2  3  2  0
  2  4  2  0
  2  5  1  0
  5  6  1  0
  6  7  1  0
  7  8  2  0
  8  9  1  0
  9 10  1  0
 10 11  2  0
 10 12  1  0
  9 13  2  0
 13 14  1  0
 14 15  1  0
 15 16  1  0
 16 17  2  0
 17 18  1  0
 18 19  2  0
 19 20  1  0
 20 21  2  0
 14  6  2  0
 21 16  1  0
  1 22  1  0
  1 23  1  0
  1 24  1  0
  5 25  1  0
  7 26  1  0
  8 27  1  0
 13 28  1  0
 17 29  1  0
 18 30  1  0
 19 31  1  0
 20 32  1  0
 21 33  1  0
M  CHG  2  10   1  12  -1
M  END
$$$$
