
     RDKit          3D

 16 16  0  0  0  0  0  0  0  0999 V2000
   -3.5139    1.0091   -0.2863 O   0  0  0  0  0  0  0  0  0  0  0  0
   -2.8400   -0.0065   -0.4014 C   0  0  0  0  0  0  0  0  0  0  0  0
   -1.3774   -0.0005   -0.1941 C   0  0  0  0  0  0  0  0  0  0  0  0
   -0.7216    1.1892    0.1443 C   0  0  0  0  0  0  0  0  0  0  0  0
    0.6623    1.1928    0.3400 C   0  0  0  0  0  0  0  0  0  0  0  0
    1.3826   -0.0011    0.1945 C   0  0  0  0  0  0  0  0  0  0  0  0
    2.8376   -0.0037    0.3989 N   0  0  0  0  0  0  0  0  0  0  0  0
    3.3798    1.0694    0.6973 O   0  0  0  0  0  0  0  0  0  0  0  0
    3.4351   -1.0805    0.2604 O   0  0  0  0  0  0  0  0  0  0  0  0
    0.7265   -1.1947   -0.1448 C   0  0  0  0  0  0  0  0  0  0  0  0
   -0.6586   -1.1920   -0.3393 C   0  0  0  0  0  0  0  0  0  0  0  0
   -3.2985   -0.9741   -0.6661 H   0  0  0  0  0  0  0  0  0  0  0  0
   -1.2865    2.1139    0.2560 H   0  0  0  0  0  0  0  0  0  0  0  0
    1.1573    2.1260    0.6028 H   0  0  0  0  0  0  0  0  0  0  0  0
    1.2767   -2.1271   -0.2601 H   0  0  0  0  0  0  0  0  0  0  0  0
   -1.1614   -2.1201   -0.6021 H   0  0  0  0  0  0  0  0  0  0  0  0
  1  2  2  0
  2  3  1  0
  3  4  1  0
  4  5  2  0
  5  6  1  0
  6  7  1  0
  7  8  2  0
  7  9  1  0
  6 10  2  0
 10 11  1  0
 11  3  2  0
  2 12  1  0
  4 13  1  0
  5 14  1  0
 10 15  1  0
 11 16  1  0
M  CHG  2   7   1   9  -1
M  END
$$$$
