
     RDKit          3D

 18 18  0  0  0  0  0  0  0  0999 V2000
   -2.2739    1.3183    0.4647 N   0  0  0  0  0  0  0  0  0  0  0  0
   -1.0225    0.7595    0.1368 C   0  0  0  0  0  0  0  0  0  0  0  0
    0.1275    1.5781    0.1103 C   0  0  0  0  0  0  0  0  0  0  0  0
   -0.0192    3.4694    0.2847 Br  0  0  0  0  0  0  0  0  0  0  0  0
    1.4116    1.0480   -0.0636 C   0  0  0  0  0  0  0  0  0  0  0  0
    1.5742   -0.3357   -0.1790 C   0  0  0  0  0  0  0  0  0  0  0  0
    2.9191   -0.8965   -0.3627 N   0  0  0  0  0  0  0  0  0  0  0  0
    3.0085   -2.1164   -0.5527 O   0  0  0  0  0  0  0  0  0  0  0  0
    3.8777   -0.1144   -0.3219 O   0  0  0  0  0  0  0  0  0  0  0  0
    0.4696   -1.1891   -0.1142 C   0  0  0  0  0  0  0  0  0  0  0  0
   -0.8107   -0.6341    0.0588 C   0  0  0  0  0  0  0  0  0  0  0  0
   -1.9390   -1.5617    0.1384 N   0  0  0  0  0  0  0  0  0  0  0  0
   -3.0121   -1.2094   -0.3740 O   0  0  0  0  0  0  0  0  0  0  0  0
   -1.7387   -2.6521    0.6907 O   0  0  0  0  0  0  0  0  0  0  0  0
   -2.3585    2.3083    0.2380 H   0  0  0  0  0  0  0  0  0  0  0  0
   -3.0801    0.7817    0.1321 H   0  0  0  0  0  0  0  0  0  0  0  0
    2.2717    1.7153   -0.0982 H   0  0  0  0  0  0  0  0  0  0  0  0
    0.5947   -2.2693   -0.1883 H   0  0  0  0  0  0  0  0  0  0  0  0
  1  2  1  0
  2  3  1  0
  3  4  1  0
  3  5  2  0
  5  6  1  0
  6  7  1  0
  7  8  2  0
  7  9  1  0
  6 10  2  0
 10 11  1  0
 11 12  1  0
 12 13  2  0
 12 14  1  0
 11  2  2  0
  1 15  1  0
  1 16  1  0
  5 17  1  0
 10 18  1  0
M  CHG  4   7   1   9  -1  12   1  14  -1
M  END
$$$$
