
     RDKit          3D

 20 20  0  0  0  0  0  0  0  0999 V2000
   -3.1825    0.9544    0.0655 N   0  0  0  0  0  0  0  0  0  0  0  0
   -2.4482   -0.1139    0.4948 C   0  0  0  0  0  0  0  0  0  0  0  0
   -2.9810   -1.0640    1.0513 O   0  0  0  0  0  0  0  0  0  0  0  0
   -0.9842   -0.1006    0.2374 C   0  0  0  0  0  0  0  0  0  0  0  0
   -0.2790    1.0907    0.0269 C   0  0  0  0  0  0  0  0  0  0  0  0
    1.1063    1.0452   -0.1964 C   0  0  0  0  0  0  0  0  0  0  0  0
    1.8397    2.2978   -0.4243 N   0  0  0  0  0  0  0  0  0  0  0  0
    1.1728    3.3323   -0.5611 O   0  0  0  0  0  0  0  0  0  0  0  0
    3.0747    2.2394   -0.4714 O   0  0  0  0  0  0  0  0  0  0  0  0
    1.7978   -0.1731   -0.2046 C   0  0  0  0  0  0  0  0  0  0  0  0
    1.0815   -1.3560    0.0195 C   0  0  0  0  0  0  0  0  0  0  0  0
    1.7890   -2.6437    0.0172 N   0  0  0  0  0  0  0  0  0  0  0  0
    3.0249   -2.6152   -0.0503 O   0  0  0  0  0  0  0  0  0  0  0  0
    1.1076   -3.6749    0.0758 O   0  0  0  0  0  0  0  0  0  0  0  0
   -0.3020   -1.3262    0.2430 C   0  0  0  0  0  0  0  0  0  0  0  0
   -2.8490    1.6367   -0.6000 H   0  0  0  0  0  0  0  0  0  0  0  0
   -4.1875    0.8699    0.1679 H   0  0  0  0  0  0  0  0  0  0  0  0
   -0.7949    2.0476    0.0646 H   0  0  0  0  0  0  0  0  0  0  0  0
    2.8730   -0.2002   -0.3795 H   0  0  0  0  0  0  0  0  0  0  0  0
   -0.8592   -2.2465    0.4237 H   0  0  0  0  0  0  0  0  0  0  0  0
  1  2  1  0
  2  3  2  0
  2  4  1  0
  4  5  2  0
  5  6  1  0
  6  7  1  0
  7  8  2  0
  7  9  1  0
  6 10  2  0
 10 11  1  0
 11 12  1  0
 12 13  2  0
 12 14  1  0
 11 15  2  0
 15  4  1  0
  1 16  1  0
  1 17  1  0
  5 18  1  0
 10 19  1  0
 15 20  1  0
M  CHG  4   7   1   9  -1  12   1  14  -1
M  END
$$$$
