
     RDKit          3D

 65 66  0  0  0  0  0  0  0  0999 V2000
    0.2674   -0.8124   -4.3447 C   0  0  0  0  0  0  0  0  0  0  0  0
   -0.6973   -0.6682   -3.3089 O   0  0  0  0  0  0  0  0  0  0  0  0
   -0.2323   -0.5100   -2.0263 C   0  0  0  0  0  0  0  0  0  0  0  0
    1.1196   -0.4905   -1.6770 C   0  0  0  0  0  0  0  0  0  0  0  0
    1.5210   -0.3287   -0.3392 C   0  0  0  0  0  0  0  0  0  0  0  0
    2.8986   -0.3732   -0.0272 N   0  0  0  0  0  0  0  0  0  0  0  0
    3.4288    0.7355   -0.2603 N   0  0  0  0  0  0  0  0  0  0  0  0
    4.8241    0.6428   -0.0797 C   0  0  0  0  0  0  0  0  0  0  0  0
    5.4307    1.0177    1.1320 C   0  0  0  0  0  0  0  0  0  0  0  0
    4.3953    1.6606    2.5917 Br  0  0  0  0  0  0  0  0  0  0  0  0
    6.8191    0.9265    1.3148 C   0  0  0  0  0  0  0  0  0  0  0  0
    7.6287    0.4592    0.2708 C   0  0  0  0  0  0  0  0  0  0  0  0
    9.0831    0.3733    0.4627 N   0  0  0  0  0  0  0  0  0  0  0  0
    9.5224    0.5792    1.6026 O   0  0  0  0  0  0  0  0  0  0  0  0
    9.7735    0.1040   -0.5295 O   0  0  0  0  0  0  0  0  0  0  0  0
    7.0650    0.0847   -0.9523 C   0  0  0  0  0  0  0  0  0  0  0  0
    5.6737    0.1942   -1.1036 C   0  0  0  0  0  0  0  0  0  0  0  0
    5.1007   -0.1901   -2.3757 N   0  0  0  0  0  0  0  0  0  0  0  0
    5.2874   -1.3580   -2.7383 O   0  0  0  0  0  0  0  0  0  0  0  0
    4.5018    0.6801   -3.0185 O   0  0  0  0  0  0  0  0  0  0  0  0
    0.5538   -0.2009    0.6770 C   0  0  0  0  0  0  0  0  0  0  0  0
    1.0122   -0.0614    2.0089 N   0  0  0  0  0  0  0  0  0  0  0  0
    0.2564    0.0340    3.1612 C   0  0  0  0  0  0  0  0  0  0  0  0
    1.1125    0.1943    4.3929 C   0  0  0  0  0  0  0  0  0  0  0  0
   -0.9669    0.0096    3.2487 O   0  0  0  0  0  0  0  0  0  0  0  0
   -0.7960   -0.2181    0.3247 C   0  0  0  0  0  0  0  0  0  0  0  0
   -1.2069   -0.3663   -1.0147 C   0  0  0  0  0  0  0  0  0  0  0  0
   -2.6021   -0.3828   -1.2462 N   0  0  0  0  0  0  0  0  0  0  0  0
   -3.1014    0.8320   -1.9285 C   0  0  0  0  0  0  0  0  0  0  0  0
   -3.3767    1.9641   -0.9297 C   0  0  0  0  0  0  0  0  0  0  0  0
   -4.4841    1.5947   -0.0927 O   0  0  0  0  0  0  0  0  0  0  0  0
   -4.8260    2.5267    0.8332 C   0  0  0  0  0  0  0  0  0  0  0  0
   -5.9564    2.0263    1.6809 C   0  0  0  0  0  0  0  0  0  0  0  0
   -4.2930    3.6193    0.9700 O   0  0  0  0  0  0  0  0  0  0  0  0
   -3.0800   -1.6692   -1.7943 C   0  0  0  0  0  0  0  0  0  0  0  0
   -4.4086   -2.0580   -1.1326 C   0  0  0  0  0  0  0  0  0  0  0  0
   -4.1653   -2.3160    0.2611 O   0  0  0  0  0  0  0  0  0  0  0  0
   -5.0596   -1.7864    1.1331 C   0  0  0  0  0  0  0  0  0  0  0  0
   -4.5405   -1.9196    2.5324 C   0  0  0  0  0  0  0  0  0  0  0  0
   -6.1385   -1.2858    0.8454 O   0  0  0  0  0  0  0  0  0  0  0  0
    0.8700   -1.7155   -4.2010 H   0  0  0  0  0  0  0  0  0  0  0  0
    0.8996    0.0798   -4.4250 H   0  0  0  0  0  0  0  0  0  0  0  0
   -0.2741   -0.9224   -5.2892 H   0  0  0  0  0  0  0  0  0  0  0  0
    1.8965   -0.6004   -2.4264 H   0  0  0  0  0  0  0  0  0  0  0  0
    7.2593    1.2260    2.2660 H   0  0  0  0  0  0  0  0  0  0  0  0
    7.6822   -0.2788   -1.7738 H   0  0  0  0  0  0  0  0  0  0  0  0
    2.0219   -0.0200    2.1067 H   0  0  0  0  0  0  0  0  0  0  0  0
    2.0079   -0.4305    4.3293 H   0  0  0  0  0  0  0  0  0  0  0  0
    1.4009    1.2426    4.5013 H   0  0  0  0  0  0  0  0  0  0  0  0
    0.5443   -0.1181    5.2735 H   0  0  0  0  0  0  0  0  0  0  0  0
   -1.5760   -0.1201    1.0740 H   0  0  0  0  0  0  0  0  0  0  0  0
   -2.4037    1.1804   -2.6990 H   0  0  0  0  0  0  0  0  0  0  0  0
   -4.0456    0.5969   -2.4358 H   0  0  0  0  0  0  0  0  0  0  0  0
   -3.6455    2.8682   -1.4878 H   0  0  0  0  0  0  0  0  0  0  0  0
   -2.4978    2.1719   -0.3116 H   0  0  0  0  0  0  0  0  0  0  0  0
   -6.7448    1.6109    1.0491 H   0  0  0  0  0  0  0  0  0  0  0  0
   -5.5883    1.2739    2.3824 H   0  0  0  0  0  0  0  0  0  0  0  0
   -6.3828    2.8622    2.2425 H   0  0  0  0  0  0  0  0  0  0  0  0
   -2.3581   -2.4715   -1.5892 H   0  0  0  0  0  0  0  0  0  0  0  0
   -3.2092   -1.6063   -2.8814 H   0  0  0  0  0  0  0  0  0  0  0  0
   -5.1534   -1.2701   -1.2880 H   0  0  0  0  0  0  0  0  0  0  0  0
   -4.7823   -2.9836   -1.5788 H   0  0  0  0  0  0  0  0  0  0  0  0
   -5.2595   -1.4751    3.2278 H   0  0  0  0  0  0  0  0  0  0  0  0
   -3.5905   -1.3863    2.6260 H   0  0  0  0  0  0  0  0  0  0  0  0
   -4.4153   -2.9772    2.7842 H   0  0  0  0  0  0  0  0  0  0  0  0
  1  2  1  0
  2  3  1  0
  3  4  1  0
  4  5  2  0
  5  6  1  0
  6  7  2  3
  7  8  1  0
  8  9  1  0
  9 10  1  0
  9 11  2  0
 11 12  1  0
 12 13  1  0
 13 14  2  0
 13 15  1  0
 12 16  2  0
 16 17  1  0
 17 18  1  0
 18 19  2  0
 18 20  1  0
  5 21  1  0
 21 22  1  0
 22 23  1  0
 23 24  1  0
 23 25  2  0
 21 26  2  0
 26 27  1  0
 27 28  1  0
 28 29  1  0
 29 30  1  0
 30 31  1  0
 31 32  1  0
 32 33  1  0
 32 34  2  0
 28 35  1  0
 35 36  1  0
 36 37  1  0
 37 38  1  0
 38 39  1  0
 38 40  2  0
 27  3  2  0
 17  8  2  0
  1 41  1  0
  1 42  1  0
  1 43  1  0
  4 44  1  0
 11 45  1  0
 16 46  1  0
 22 47  1  0
 24 48  1  0
 24 49  1  0
 24 50  1  0
 26 51  1  0
 29 52  1  0
 29 53  1  0
 30 54  1  0
 30 55  1  0
 33 56  1  0
 33 57  1  0
 33 58  1  0
 35 59  1  0
 35 60  1  0
 36 61  1  0
 36 62  1  0
 39 63  1  0
 39 64  1  0
 39 65  1  0
M  CHG  4  13   1  15  -1  18   1  20  -1
M  END
$$$$
