
     RDKit          3D

 17 17  0  0  0  0  0  0  0  0999 V2000
   -2.2376   -2.4971   -0.2266 O   0  0  0  0  0  0  0  0  0  0  0  0
   -2.2739   -1.2885   -0.0249 C   0  0  0  0  0  0  0  0  0  0  0  0
   -1.0411   -0.4755    0.0074 C   0  0  0  0  0  0  0  0  0  0  0  0
    0.1973   -1.0975   -0.1967 C   0  0  0  0  0  0  0  0  0  0  0  0
    1.3633   -0.3238   -0.1654 C   0  0  0  0  0  0  0  0  0  0  0  0
    2.6695   -0.9617   -0.3776 N   0  0  0  0  0  0  0  0  0  0  0  0
    2.6903   -2.1828   -0.5802 O   0  0  0  0  0  0  0  0  0  0  0  0
    3.6737   -0.2365   -0.3409 O   0  0  0  0  0  0  0  0  0  0  0  0
    1.2974    1.0586    0.0674 C   0  0  0  0  0  0  0  0  0  0  0  0
    0.0571    1.6709    0.2700 C   0  0  0  0  0  0  0  0  0  0  0  0
   -1.1081    0.9031    0.2396 C   0  0  0  0  0  0  0  0  0  0  0  0
   -2.3197    1.5015    0.4376 O   0  0  0  0  0  0  0  0  0  0  0  0
   -3.2307   -0.7663    0.1397 H   0  0  0  0  0  0  0  0  0  0  0  0
    0.2372   -2.1712   -0.3765 H   0  0  0  0  0  0  0  0  0  0  0  0
    2.1992    1.6686    0.0935 H   0  0  0  0  0  0  0  0  0  0  0  0
    0.0218    2.7425    0.4491 H   0  0  0  0  0  0  0  0  0  0  0  0
   -2.1958    2.4557    0.5843 H   0  0  0  0  0  0  0  0  0  0  0  0
  1  2  2  0
  2  3  1  0
  3  4  1  0
  4  5  2  0
  5  6  1  0
  6  7  2  0
  6  8  1  0
  5  9  1  0
  9 10  2  0
 10 11  1  0
 11 12  1  0
 11  3  2  0
  2 13  1  0
  4 14  1  0
  9 15  1  0
 10 16  1  0
 12 17  1  0
M  CHG  2   6   1   8  -1
M  END
$$$$
