
     RDKit          3D

 18 18  0  0  0  0  0  0  0  0999 V2000
   -2.4330    1.1043   -0.0966 N   0  0  0  0  0  0  0  0  0  0  0  0
   -1.0899    0.6699   -0.1211 C   0  0  0  0  0  0  0  0  0  0  0  0
   -0.0590    1.5946   -0.3123 C   0  0  0  0  0  0  0  0  0  0  0  0
    1.2732    1.1769   -0.3017 C   0  0  0  0  0  0  0  0  0  0  0  0
    1.5688   -0.1725   -0.0723 C   0  0  0  0  0  0  0  0  0  0  0  0
    2.9649   -0.6233   -0.0930 N   0  0  0  0  0  0  0  0  0  0  0  0
    3.8338    0.2056   -0.4001 O   0  0  0  0  0  0  0  0  0  0  0  0
    3.1950   -1.8055    0.1995 O   0  0  0  0  0  0  0  0  0  0  0  0
    0.5481   -1.0952    0.1907 C   0  0  0  0  0  0  0  0  0  0  0  0
   -0.7767   -0.6578    0.2493 C   0  0  0  0  0  0  0  0  0  0  0  0
   -1.8188   -1.5843    0.4753 N   0  0  0  0  0  0  0  0  0  0  0  0
   -3.0454    0.3506   -0.4058 H   0  0  0  0  0  0  0  0  0  0  0  0
   -2.5853    1.9421   -0.6503 H   0  0  0  0  0  0  0  0  0  0  0  0
   -0.2874    2.6414   -0.4956 H   0  0  0  0  0  0  0  0  0  0  0  0
    2.0592    1.9075   -0.4809 H   0  0  0  0  0  0  0  0  0  0  0  0
    0.7769   -2.1421    0.3732 H   0  0  0  0  0  0  0  0  0  0  0  0
   -2.6034   -1.1182    0.9294 H   0  0  0  0  0  0  0  0  0  0  0  0
   -1.5209   -2.3938    1.0124 H   0  0  0  0  0  0  0  0  0  0  0  0
  1  2  1  0
  2  3  1  0
  3  4  2  0
  4  5  1  0
  5  6  1  0
  6  7  2  0
  6  8  1  0
  5  9  2  0
  9 10  1  0
 10 11  1  0
 10  2  2  0
  1 12  1  0
  1 13  1  0
  3 14  1  0
  4 15  1  0
  9 16  1  0
 11 17  1  0
 11 18  1  0
M  CHG  2   6   1   8  -1
M  END
$$$$
