
     RDKit          3D

 32 32  0  0  0  0  0  0  0  0999 V2000
   -2.8349   -2.8864    0.1646 C   0  0  0  0  0  0  0  0  0  0  0  0
   -2.7102   -1.3738    0.2008 C   0  0  0  0  0  0  0  0  0  0  0  0
   -1.4513   -1.0250   -0.3720 O   0  0  0  0  0  0  0  0  0  0  0  0
   -1.1209    0.3023   -0.4394 C   0  0  0  0  0  0  0  0  0  0  0  0
   -1.9363    1.3450    0.0189 C   0  0  0  0  0  0  0  0  0  0  0  0
   -1.5164    2.6758   -0.0790 C   0  0  0  0  0  0  0  0  0  0  0  0
   -0.2699    2.9687   -0.6397 C   0  0  0  0  0  0  0  0  0  0  0  0
    0.1743    4.3641   -0.7401 N   0  0  0  0  0  0  0  0  0  0  0  0
    1.2391    4.5922   -1.3312 O   0  0  0  0  0  0  0  0  0  0  0  0
   -0.5454    5.2345   -0.2289 O   0  0  0  0  0  0  0  0  0  0  0  0
    0.5542    1.9396   -1.1041 C   0  0  0  0  0  0  0  0  0  0  0  0
    0.1346    0.5977   -1.0085 C   0  0  0  0  0  0  0  0  0  0  0  0
    1.0583   -0.4878   -1.5215 C   0  0  0  0  0  0  0  0  0  0  0  0
    2.3220   -0.5619   -0.7785 N   0  0  0  0  0  0  0  0  0  0  0  0
    2.1289   -1.1198    0.5698 C   0  0  0  0  0  0  0  0  0  0  0  0
    3.4643   -1.3715    1.2775 C   0  0  0  0  0  0  0  0  0  0  0  0
    4.4214   -2.6191    0.4332 Cl  0  0  0  0  0  0  0  0  0  0  0  0
   -3.7870   -3.2097    0.5947 H   0  0  0  0  0  0  0  0  0  0  0  0
   -2.0172   -3.3539    0.7232 H   0  0  0  0  0  0  0  0  0  0  0  0
   -2.7685   -3.2541   -0.8648 H   0  0  0  0  0  0  0  0  0  0  0  0
   -2.7611   -1.0361    1.2422 H   0  0  0  0  0  0  0  0  0  0  0  0
   -3.5279   -0.9331   -0.3809 H   0  0  0  0  0  0  0  0  0  0  0  0
   -2.9097    1.1570    0.4618 H   0  0  0  0  0  0  0  0  0  0  0  0
   -2.1707    3.4650    0.2862 H   0  0  0  0  0  0  0  0  0  0  0  0
    1.5316    2.1568   -1.5340 H   0  0  0  0  0  0  0  0  0  0  0  0
    0.5759   -1.4711   -1.5560 H   0  0  0  0  0  0  0  0  0  0  0  0
    1.2914   -0.2469   -2.5669 H   0  0  0  0  0  0  0  0  0  0  0  0
    2.9546   -1.1839   -1.2873 H   0  0  0  0  0  0  0  0  0  0  0  0
    1.5510   -0.4178    1.1813 H   0  0  0  0  0  0  0  0  0  0  0  0
    1.5669   -2.0608    0.5197 H   0  0  0  0  0  0  0  0  0  0  0  0
    4.0676   -0.4595    1.3262 H   0  0  0  0  0  0  0  0  0  0  0  0
    3.2912   -1.7269    2.2976 H   0  0  0  0  0  0  0  0  0  0  0  0
  1  2  1  0
  2  3  1  0
  3  4  1  0
  4  5  1  0
  5  6  2  0
  6  7  1  0
  7  8  1  0
  8  9  2  0
  8 10  1  0
  7 11  2  0
 11 12  1  0
 12 13  1  0
 13 14  1  0
 14 15  1  0
 15 16  1  0
 16 17  1  0
 12  4  2  0
  1 18  1  0
  1 19  1  0
  1 20  1  0
  2 21  1  0
  2 22  1  0
  5 23  1  0
  6 24  1  0
 11 25  1  0
 13 26  1  0
 13 27  1  0
 14 28  1  0
 15 29  1  0
 15 30  1  0
 16 31  1  0
 16 32  1  0
M  CHG  2   8   1  10  -1
M  END
$$$$
