
     RDKit          3D

 17 17  0  0  0  0  0  0  0  0999 V2000
   -2.4384   -1.3401   -0.0684 N   0  0  0  0  0  0  0  0  0  0  0  0
   -1.1503   -0.7835   -0.0370 C   0  0  0  0  0  0  0  0  0  0  0  0
   -0.1357   -1.3171   -0.8353 C   0  0  0  0  0  0  0  0  0  0  0  0
    1.1120   -0.6908   -0.9094 C   0  0  0  0  0  0  0  0  0  0  0  0
    1.3303    0.5006   -0.2033 C   0  0  0  0  0  0  0  0  0  0  0  0
    2.6386    1.1614   -0.2818 N   0  0  0  0  0  0  0  0  0  0  0  0
    3.5218    0.6163   -0.9586 O   0  0  0  0  0  0  0  0  0  0  0  0
    2.7829    2.2260    0.3365 O   0  0  0  0  0  0  0  0  0  0  0  0
    0.3119    1.0759    0.5672 C   0  0  0  0  0  0  0  0  0  0  0  0
   -0.9220    0.4335    0.6268 C   0  0  0  0  0  0  0  0  0  0  0  0
   -1.9501    0.9628    1.3648 O   0  0  0  0  0  0  0  0  0  0  0  0
   -3.0015   -0.9894    0.7065 H   0  0  0  0  0  0  0  0  0  0  0  0
   -2.4580   -2.3499   -0.1523 H   0  0  0  0  0  0  0  0  0  0  0  0
   -0.3144   -2.2211   -1.4125 H   0  0  0  0  0  0  0  0  0  0  0  0
    1.8895   -1.1339   -1.5284 H   0  0  0  0  0  0  0  0  0  0  0  0
    0.4763    2.0043    1.1059 H   0  0  0  0  0  0  0  0  0  0  0  0
   -1.6929    1.8452    1.6794 H   0  0  0  0  0  0  0  0  0  0  0  0
  1  2  1  0
  2  3  1  0
  3  4  2  0
  4  5  1  0
  5  6  1  0
  6  7  2  0
  6  8  1  0
  5  9  2  0
  9 10  1  0
 10 11  1  0
 10  2  2  0
  1 12  1  0
  1 13  1  0
  3 14  1  0
  4 15  1  0
  9 16  1  0
 11 17  1  0
M  CHG  2   6   1   8  -1
M  END
$$$$
