
     RDKit          3D

 32 33  0  0  0  0  0  0  0  0999 V2000
   -3.8935   -1.2413    0.5700 C   0  0  0  0  0  0  0  0  0  0  0  0
   -3.1675   -0.2174   -0.2943 C   0  0  0  0  0  0  0  0  0  0  0  0
   -3.9630    0.1635   -1.5355 C   0  0  0  0  0  0  0  0  0  0  0  0
   -2.8032    0.9398    0.4679 N   0  0  0  0  0  0  0  0  0  0  0  0
   -1.4417    1.0752    0.6107 C   0  0  0  0  0  0  0  0  0  0  0  0
   -0.9756    1.9728    1.2945 O   0  0  0  0  0  0  0  0  0  0  0  0
   -0.8104    0.0716   -0.0917 N   0  0  0  0  0  0  0  0  0  0  0  0
    0.6066   -0.1054   -0.1957 C   0  0  0  0  0  0  0  0  0  0  0  0
    1.1646   -1.2538   -0.7830 C   0  0  0  0  0  0  0  0  0  0  0  0
    2.5495   -1.4281   -0.8943 C   0  0  0  0  0  0  0  0  0  0  0  0
    3.4112   -0.4416   -0.4112 C   0  0  0  0  0  0  0  0  0  0  0  0
    4.8419   -0.6529   -0.5842 N   0  0  0  0  0  0  0  0  0  0  0  0
    5.4802    0.2515   -1.1333 O   0  0  0  0  0  0  0  0  0  0  0  0
    5.3018   -1.7329   -0.1940 O   0  0  0  0  0  0  0  0  0  0  0  0
    2.9157    0.7128    0.2013 C   0  0  0  0  0  0  0  0  0  0  0  0
    3.8211    1.7822    0.7576 C   0  0  0  0  0  0  0  0  0  0  0  0
    4.2951    2.6197   -0.1998 F   0  0  0  0  0  0  0  0  0  0  0  0
    3.1946    2.5813    1.6668 F   0  0  0  0  0  0  0  0  0  0  0  0
    4.8988    1.2754    1.4133 F   0  0  0  0  0  0  0  0  0  0  0  0
    1.5113    0.8632    0.2877 C   0  0  0  0  0  0  0  0  0  0  0  0
   -1.7719   -0.7362   -0.6759 C   0  0  0  0  0  0  0  0  0  0  0  0
   -1.6172   -1.7192   -1.3926 O   0  0  0  0  0  0  0  0  0  0  0  0
   -4.1216   -2.1495    0.0012 H   0  0  0  0  0  0  0  0  0  0  0  0
   -4.8346   -0.8341    0.9560 H   0  0  0  0  0  0  0  0  0  0  0  0
   -3.2857   -1.5403    1.4322 H   0  0  0  0  0  0  0  0  0  0  0  0
   -4.9063    0.6507   -1.2649 H   0  0  0  0  0  0  0  0  0  0  0  0
   -4.1954   -0.7175   -2.1439 H   0  0  0  0  0  0  0  0  0  0  0  0
   -3.4025    0.8600   -2.1702 H   0  0  0  0  0  0  0  0  0  0  0  0
   -3.4366    1.5625    0.9542 H   0  0  0  0  0  0  0  0  0  0  0  0
    0.5480   -2.0623   -1.1669 H   0  0  0  0  0  0  0  0  0  0  0  0
    2.9372   -2.3326   -1.3616 H   0  0  0  0  0  0  0  0  0  0  0  0
    1.1490    1.7832    0.7445 H   0  0  0  0  0  0  0  0  0  0  0  0
  1  2  1  0
  2  3  1  0
  2  4  1  0
  4  5  1  0
  5  6  2  0
  5  7  1  0
  7  8  1  0
  8  9  1  0
  9 10  2  0
 10 11  1  0
 11 12  1  0
 12 13  2  0
 12 14  1  0
 11 15  2  0
 15 16  1  0
 16 17  1  0
 16 18  1  0
 16 19  1  0
 15 20  1  0
  7 21  1  0
 21 22  2  0
 21  2  1  0
 20  8  2  0
  1 23  1  0
  1 24  1  0
  1 25  1  0
  3 26  1  0
  3 27  1  0
  3 28  1  0
  4 29  1  0
  9 30  1  0
 10 31  1  0
 20 32  1  0
M  CHG  2  12   1  14  -1
M  END
$$$$
