
     RDKit          3D

 19 19  0  0  0  0  0  0  0  0999 V2000
   -2.4435    2.6448    0.6512 O   0  0  0  0  0  0  0  0  0  0  0  0
   -1.7038    2.3446   -0.2922 N   0  0  0  0  0  0  0  0  0  0  0  0
   -1.5083    3.0112   -1.3148 O   0  0  0  0  0  0  0  0  0  0  0  0
   -0.9480    1.1200   -0.1647 C   0  0  0  0  0  0  0  0  0  0  0  0
    0.4195    1.2389    0.1480 C   0  0  0  0  0  0  0  0  0  0  0  0
    1.2084    0.0870    0.2919 C   0  0  0  0  0  0  0  0  0  0  0  0
    2.6864    0.1943    0.6033 C   0  0  0  0  0  0  0  0  0  0  0  0
    3.1531   -0.8733    1.3032 F   0  0  0  0  0  0  0  0  0  0  0  0
    3.4382    0.2722   -0.5249 F   0  0  0  0  0  0  0  0  0  0  0  0
    2.9875    1.2945    1.3424 F   0  0  0  0  0  0  0  0  0  0  0  0
    0.6033   -1.1653    0.1041 C   0  0  0  0  0  0  0  0  0  0  0  0
   -0.7673   -1.2443   -0.2080 C   0  0  0  0  0  0  0  0  0  0  0  0
   -1.3286   -2.5641   -0.3819 N   0  0  0  0  0  0  0  0  0  0  0  0
   -2.0116   -3.0072    0.5478 O   0  0  0  0  0  0  0  0  0  0  0  0
   -1.0367   -3.1557   -1.4275 O   0  0  0  0  0  0  0  0  0  0  0  0
   -1.5727   -0.1137   -0.3550 C   0  0  0  0  0  0  0  0  0  0  0  0
   -3.2388   -0.2329   -0.8003 Cl  0  0  0  0  0  0  0  0  0  0  0  0
    0.8668    2.2264    0.2780 H   0  0  0  0  0  0  0  0  0  0  0  0
    1.1958   -2.0774    0.1994 H   0  0  0  0  0  0  0  0  0  0  0  0
  1  2  2  0
  2  3  1  0
  2  4  1  0
  4  5  2  0
  5  6  1  0
  6  7  1  0
  7  8  1  0
  7  9  1  0
  7 10  1  0
  6 11  2  0
 11 12  1  0
 12 13  1  0
 13 14  2  0
 13 15  1  0
 12 16  2  0
 16 17  1  0
 16  4  1  0
  5 18  1  0
 11 19  1  0
M  CHG  4   2   1   3  -1  13   1  15  -1
M  END
$$$$
