
     RDKit          3D

 20 20  0  0  0  0  0  0  0  0999 V2000
   -0.9317   -2.5346    0.2981 C   0  0  0  0  0  0  0  0  0  0  0  0
   -0.3387   -1.1601    0.1393 C   0  0  0  0  0  0  0  0  0  0  0  0
    1.0553   -0.9940    0.1637 C   0  0  0  0  0  0  0  0  0  0  0  0
    1.6163    0.2823    0.0167 C   0  0  0  0  0  0  0  0  0  0  0  0
    3.0777    0.4404    0.0444 N   0  0  0  0  0  0  0  0  0  0  0  0
    3.5321    1.5845   -0.0890 O   0  0  0  0  0  0  0  0  0  0  0  0
    3.7645   -0.5782    0.1991 O   0  0  0  0  0  0  0  0  0  0  0  0
    0.8001    1.4068   -0.1561 C   0  0  0  0  0  0  0  0  0  0  0  0
   -0.5944    1.2417   -0.1807 C   0  0  0  0  0  0  0  0  0  0  0  0
   -1.4364    2.4294   -0.3625 N   0  0  0  0  0  0  0  0  0  0  0  0
   -2.6660    2.2616   -0.3813 O   0  0  0  0  0  0  0  0  0  0  0  0
   -0.8759    3.5258   -0.4863 O   0  0  0  0  0  0  0  0  0  0  0  0
   -1.1653   -0.0356   -0.0338 C   0  0  0  0  0  0  0  0  0  0  0  0
   -2.5135   -0.2830   -0.0462 O   0  0  0  0  0  0  0  0  0  0  0  0
   -0.1542   -3.2957    0.4224 H   0  0  0  0  0  0  0  0  0  0  0  0
   -1.5164   -2.7996   -0.5888 H   0  0  0  0  0  0  0  0  0  0  0  0
   -1.5749   -2.5697    1.1833 H   0  0  0  0  0  0  0  0  0  0  0  0
    1.6948   -1.8665    0.2980 H   0  0  0  0  0  0  0  0  0  0  0  0
    1.2441    2.3952   -0.2697 H   0  0  0  0  0  0  0  0  0  0  0  0
   -3.0176    0.5493   -0.1708 H   0  0  0  0  0  0  0  0  0  0  0  0
  1  2  1  0
  2  3  2  0
  3  4  1  0
  4  5  1  0
  5  6  2  0
  5  7  1  0
  4  8  2  0
  8  9  1  0
  9 10  1  0
 10 11  2  0
 10 12  1  0
  9 13  2  0
 13 14  1  0
 13  2  1  0
  1 15  1  0
  1 16  1  0
  1 17  1  0
  3 18  1  0
  8 19  1  0
 14 20  1  0
M  CHG  4   5   1   7  -1  10   1  12  -1
M  END
$$$$
