
     RDKit          3D

 29 29  0  0  0  0  0  0  0  0999 V2000
    2.6797   -1.8754   -0.4008 C   0  0  0  0  0  0  0  0  0  0  0  0
    2.3435   -1.1229    0.7475 O   0  0  0  0  0  0  0  0  0  0  0  0
    2.2893    0.4932    0.6433 P   0  0  0  0  0  0  0  0  0  0  0  0
    2.1197    1.4234    2.3356 S   0  0  0  0  0  0  0  0  0  0  0  0
    3.6430    0.8044   -0.1938 O   0  0  0  0  0  0  0  0  0  0  0  0
    3.8906    2.1378   -0.5951 C   0  0  0  0  0  0  0  0  0  0  0  0
    1.1507    0.7544   -0.4742 O   0  0  0  0  0  0  0  0  0  0  0  0
   -0.1803    0.4653   -0.3608 C   0  0  0  0  0  0  0  0  0  0  0  0
   -0.9909    0.9670   -1.3805 C   0  0  0  0  0  0  0  0  0  0  0  0
   -2.3631    0.7204   -1.3728 C   0  0  0  0  0  0  0  0  0  0  0  0
   -2.9204   -0.0374   -0.3336 C   0  0  0  0  0  0  0  0  0  0  0  0
   -4.3581   -0.2872   -0.3842 N   0  0  0  0  0  0  0  0  0  0  0  0
   -5.0912    0.6846   -0.6138 O   0  0  0  0  0  0  0  0  0  0  0  0
   -4.7441   -1.4523   -0.2218 O   0  0  0  0  0  0  0  0  0  0  0  0
   -2.1265   -0.5414    0.7134 C   0  0  0  0  0  0  0  0  0  0  0  0
   -2.6835   -1.3484    1.8541 C   0  0  0  0  0  0  0  0  0  0  0  0
   -0.7417   -0.2893    0.6721 C   0  0  0  0  0  0  0  0  0  0  0  0
    3.7547   -1.8086   -0.5871 H   0  0  0  0  0  0  0  0  0  0  0  0
    2.1281   -1.5264   -1.2773 H   0  0  0  0  0  0  0  0  0  0  0  0
    2.4210   -2.9217   -0.2190 H   0  0  0  0  0  0  0  0  0  0  0  0
    4.6718    2.1314   -1.3596 H   0  0  0  0  0  0  0  0  0  0  0  0
    2.9906    2.5919   -1.0183 H   0  0  0  0  0  0  0  0  0  0  0  0
    4.2404    2.7261    0.2568 H   0  0  0  0  0  0  0  0  0  0  0  0
   -0.5542    1.5534   -2.1859 H   0  0  0  0  0  0  0  0  0  0  0  0
   -2.9847    1.1152   -2.1742 H   0  0  0  0  0  0  0  0  0  0  0  0
   -3.5989   -0.8929    2.2454 H   0  0  0  0  0  0  0  0  0  0  0  0
   -1.9756   -1.3954    2.6890 H   0  0  0  0  0  0  0  0  0  0  0  0
   -2.8894   -2.3728    1.5292 H   0  0  0  0  0  0  0  0  0  0  0  0
   -0.1204   -0.6963    1.4665 H   0  0  0  0  0  0  0  0  0  0  0  0
  1  2  1  0
  2  3  1  0
  3  4  2  0
  3  5  1  0
  5  6  1  0
  3  7  1  0
  7  8  1  0
  8  9  1  0
  9 10  2  0
 10 11  1  0
 11 12  1  0
 12 13  2  0
 12 14  1  0
 11 15  2  0
 15 16  1  0
 15 17  1  0
 17  8  2  0
  1 18  1  0
  1 19  1  0
  1 20  1  0
  6 21  1  0
  6 22  1  0
  6 23  1  0
  9 24  1  0
 10 25  1  0
 16 26  1  0
 16 27  1  0
 16 28  1  0
 17 29  1  0
M  CHG  2  12   1  14  -1
M  END
$$$$
