
     RDKit          3D

 14 14  0  0  0  0  0  0  0  0999 V2000
   -2.9096    0.3792   -1.0431 O   0  0  0  0  0  0  0  0  0  0  0  0
   -2.3281    0.3673    0.0476 N   0  0  0  0  0  0  0  0  0  0  0  0
   -2.8410    0.5282    1.1608 O   0  0  0  0  0  0  0  0  0  0  0  0
   -0.9065    0.1430    0.0185 C   0  0  0  0  0  0  0  0  0  0  0  0
   -0.0535    1.2475   -0.0827 C   0  0  0  0  0  0  0  0  0  0  0  0
   -0.6957    2.8602   -0.1718 Cl  0  0  0  0  0  0  0  0  0  0  0  0
    1.3335    1.0251   -0.1108 C   0  0  0  0  0  0  0  0  0  0  0  0
    2.4260    2.3753   -0.2361 Cl  0  0  0  0  0  0  0  0  0  0  0  0
    1.8396   -0.2903   -0.0376 C   0  0  0  0  0  0  0  0  0  0  0  0
    3.5605   -0.5618   -0.0728 Cl  0  0  0  0  0  0  0  0  0  0  0  0
    0.9566   -1.3864    0.0640 C   0  0  0  0  0  0  0  0  0  0  0  0
    1.5846   -3.0081    0.1541 Cl  0  0  0  0  0  0  0  0  0  0  0  0
   -0.4315   -1.1709    0.0926 C   0  0  0  0  0  0  0  0  0  0  0  0
   -1.5348   -2.5083    0.2174 Cl  0  0  0  0  0  0  0  0  0  0  0  0
  1  2  2  0
  2  3  1  0
  2  4  1  0
  4  5  2  0
  5  6  1  0
  5  7  1  0
  7  8  1  0
  7  9  2  0
  9 10  1  0
  9 11  1  0
 11 12  1  0
 11 13  2  0
 13 14  1  0
 13  4  1  0
M  CHG  2   2   1   3  -1
M  END
$$$$
