
     RDKit          3D

 19 19  0  0  0  0  0  0  0  0999 V2000
    3.1436    0.1595    0.0378 C   0  0  0  0  0  0  0  0  0  0  0  0
    1.8582    0.9377   -0.0647 C   0  0  0  0  0  0  0  0  0  0  0  0
    1.8616    2.1600   -0.1908 O   0  0  0  0  0  0  0  0  0  0  0  0
    0.5573    0.2055   -0.0116 C   0  0  0  0  0  0  0  0  0  0  0  0
    0.4928   -1.1877    0.1311 C   0  0  0  0  0  0  0  0  0  0  0  0
   -0.7445   -1.8377    0.1769 C   0  0  0  0  0  0  0  0  0  0  0  0
   -1.9267   -1.1036    0.0807 C   0  0  0  0  0  0  0  0  0  0  0  0
   -1.8650    0.2888   -0.0620 C   0  0  0  0  0  0  0  0  0  0  0  0
   -3.1092    1.0626   -0.1634 N   0  0  0  0  0  0  0  0  0  0  0  0
   -4.1789    0.4383   -0.1174 O   0  0  0  0  0  0  0  0  0  0  0  0
   -3.0175    2.2911   -0.2887 O   0  0  0  0  0  0  0  0  0  0  0  0
   -0.6294    0.9473   -0.1087 C   0  0  0  0  0  0  0  0  0  0  0  0
    3.9886    0.8530   -0.0192 H   0  0  0  0  0  0  0  0  0  0  0  0
    3.2275   -0.5449   -0.7937 H   0  0  0  0  0  0  0  0  0  0  0  0
    3.1966   -0.3600    0.9980 H   0  0  0  0  0  0  0  0  0  0  0  0
    1.3919   -1.7937    0.2092 H   0  0  0  0  0  0  0  0  0  0  0  0
   -0.7864   -2.9198    0.2878 H   0  0  0  0  0  0  0  0  0  0  0  0
   -2.8808   -1.6268    0.1182 H   0  0  0  0  0  0  0  0  0  0  0  0
   -0.5797    2.0303   -0.2196 H   0  0  0  0  0  0  0  0  0  0  0  0
  1  2  1  0
  2  3  2  0
  2  4  1  0
  4  5  1  0
  5  6  2  0
  6  7  1  0
  7  8  2  0
  8  9  1  0
  9 10  2  0
  9 11  1  0
  8 12  1  0
 12  4  2  0
  1 13  1  0
  1 14  1  0
  1 15  1  0
  5 16  1  0
  6 17  1  0
  7 18  1  0
 12 19  1  0
M  CHG  2   9   1  11  -1
M  END
$$$$
