
     RDKit          3D

 32 32  0  0  0  0  0  0  0  0999 V2000
   -3.2055    3.1280   -1.1729 C   0  0  0  0  0  0  0  0  0  0  0  0
   -2.2297    2.6857   -0.1018 C   0  0  0  0  0  0  0  0  0  0  0  0
   -2.2547    1.2700   -0.0262 O   0  0  0  0  0  0  0  0  0  0  0  0
   -1.0829    0.5203    0.8048 P   0  0  0  0  0  0  0  0  0  0  0  0
   -0.9599    0.9560    2.6908 S   0  0  0  0  0  0  0  0  0  0  0  0
   -1.3842   -1.0258    0.4279 O   0  0  0  0  0  0  0  0  0  0  0  0
   -2.6024   -1.6030    0.8677 C   0  0  0  0  0  0  0  0  0  0  0  0
   -2.7471   -2.9670    0.2245 C   0  0  0  0  0  0  0  0  0  0  0  0
    0.2091    0.8430   -0.1127 O   0  0  0  0  0  0  0  0  0  0  0  0
    1.4463    0.2717   -0.0075 C   0  0  0  0  0  0  0  0  0  0  0  0
    2.4444    0.8602   -0.7914 C   0  0  0  0  0  0  0  0  0  0  0  0
    3.7451    0.3577   -0.7711 C   0  0  0  0  0  0  0  0  0  0  0  0
    4.0292   -0.7465    0.0395 C   0  0  0  0  0  0  0  0  0  0  0  0
    5.3794   -1.2570    0.0325 N   0  0  0  0  0  0  0  0  0  0  0  0
    5.5669   -2.3510   -0.5142 O   0  0  0  0  0  0  0  0  0  0  0  0
    6.2517   -0.5335    0.5302 O   0  0  0  0  0  0  0  0  0  0  0  0
    3.0483   -1.3451    0.8285 C   0  0  0  0  0  0  0  0  0  0  0  0
    3.3591   -2.6853    1.8708 Cl  0  0  0  0  0  0  0  0  0  0  0  0
    1.7465   -0.8287    0.7984 C   0  0  0  0  0  0  0  0  0  0  0  0
   -3.2219    4.2179   -1.2602 H   0  0  0  0  0  0  0  0  0  0  0  0
   -2.9326    2.6997   -2.1431 H   0  0  0  0  0  0  0  0  0  0  0  0
   -4.2167    2.7765   -0.9427 H   0  0  0  0  0  0  0  0  0  0  0  0
   -2.5231    3.1049    0.8652 H   0  0  0  0  0  0  0  0  0  0  0  0
   -1.2216    3.0328   -0.3488 H   0  0  0  0  0  0  0  0  0  0  0  0
   -3.4445   -0.9647    0.5836 H   0  0  0  0  0  0  0  0  0  0  0  0
   -2.5849   -1.7057    1.9566 H   0  0  0  0  0  0  0  0  0  0  0  0
   -3.6747   -3.4518    0.5415 H   0  0  0  0  0  0  0  0  0  0  0  0
   -2.7487   -2.8801   -0.8671 H   0  0  0  0  0  0  0  0  0  0  0  0
   -1.9025   -3.6108    0.4914 H   0  0  0  0  0  0  0  0  0  0  0  0
    2.2073    1.7162   -1.4207 H   0  0  0  0  0  0  0  0  0  0  0  0
    4.5182    0.8213   -1.3801 H   0  0  0  0  0  0  0  0  0  0  0  0
    0.9862   -1.3060    1.4100 H   0  0  0  0  0  0  0  0  0  0  0  0
  1  2  1  0
  2  3  1  0
  3  4  1  0
  4  5  2  0
  4  6  1  0
  6  7  1  0
  7  8  1  0
  4  9  1  0
  9 10  1  0
 10 11  1  0
 11 12  2  0
 12 13  1  0
 13 14  1  0
 14 15  2  0
 14 16  1  0
 13 17  2  0
 17 18  1  0
 17 19  1  0
 19 10  2  0
  1 20  1  0
  1 21  1  0
  1 22  1  0
  2 23  1  0
  2 24  1  0
  7 25  1  0
  7 26  1  0
  8 27  1  0
  8 28  1  0
  8 29  1  0
 11 30  1  0
 12 31  1  0
 19 32  1  0
M  CHG  2  14   1  16  -1
M  END
$$$$
