
     RDKit          3D

 41 41  0  0  0  0  0  0  0  0999 V2000
   -1.5418   -3.4629    0.2234 C   0  0  0  0  0  0  0  0  0  0  0  0
   -1.8775   -2.0309   -0.1713 C   0  0  0  0  0  0  0  0  0  0  0  0
   -1.1951   -0.9759    0.7240 C   0  0  0  0  0  0  0  0  0  0  0  0
   -1.6831   -1.0299    2.1769 C   0  0  0  0  0  0  0  0  0  0  0  0
   -1.3780    0.4216    0.1361 C   0  0  0  0  0  0  0  0  0  0  0  0
   -2.6674    0.9884    0.0579 C   0  0  0  0  0  0  0  0  0  0  0  0
   -2.8651    2.2608   -0.5051 C   0  0  0  0  0  0  0  0  0  0  0  0
   -4.2217    2.8220   -0.5730 N   0  0  0  0  0  0  0  0  0  0  0  0
   -5.1621    2.0999   -0.2153 O   0  0  0  0  0  0  0  0  0  0  0  0
   -4.3404    3.9831   -0.9866 O   0  0  0  0  0  0  0  0  0  0  0  0
   -1.7891    2.9924   -1.0145 C   0  0  0  0  0  0  0  0  0  0  0  0
   -0.5065    2.4373   -0.9360 C   0  0  0  0  0  0  0  0  0  0  0  0
    0.5950    3.1867   -1.5242 N   0  0  0  0  0  0  0  0  0  0  0  0
    1.6448    3.2852   -0.8771 O   0  0  0  0  0  0  0  0  0  0  0  0
    0.3925    3.6928   -2.6365 O   0  0  0  0  0  0  0  0  0  0  0  0
   -0.2909    1.1778   -0.3517 C   0  0  0  0  0  0  0  0  0  0  0  0
    0.9986    0.6333   -0.3273 O   0  0  0  0  0  0  0  0  0  0  0  0
    1.6393    0.8485    0.8801 C   0  0  0  0  0  0  0  0  0  0  0  0
    1.1639    1.3861    1.8713 O   0  0  0  0  0  0  0  0  0  0  0  0
    3.0530    0.4106    0.8251 C   0  0  0  0  0  0  0  0  0  0  0  0
    3.6183   -0.5740    0.0985 C   0  0  0  0  0  0  0  0  0  0  0  0
    2.8991   -1.5328   -0.8092 C   0  0  0  0  0  0  0  0  0  0  0  0
    5.1071   -0.8011    0.1738 C   0  0  0  0  0  0  0  0  0  0  0  0
   -0.4592   -3.6234    0.2381 H   0  0  0  0  0  0  0  0  0  0  0  0
   -1.9440   -3.7124    1.2095 H   0  0  0  0  0  0  0  0  0  0  0  0
   -1.9772   -4.1621   -0.4978 H   0  0  0  0  0  0  0  0  0  0  0  0
   -1.5612   -1.8821   -1.2120 H   0  0  0  0  0  0  0  0  0  0  0  0
   -2.9672   -1.9067   -0.1562 H   0  0  0  0  0  0  0  0  0  0  0  0
   -0.1281   -1.2192    0.7497 H   0  0  0  0  0  0  0  0  0  0  0  0
   -1.3957   -1.9729    2.6527 H   0  0  0  0  0  0  0  0  0  0  0  0
   -1.2427   -0.2193    2.7685 H   0  0  0  0  0  0  0  0  0  0  0  0
   -2.7724   -0.9414    2.2471 H   0  0  0  0  0  0  0  0  0  0  0  0
   -3.5215    0.4262    0.4364 H   0  0  0  0  0  0  0  0  0  0  0  0
   -1.9388    3.9701   -1.4706 H   0  0  0  0  0  0  0  0  0  0  0  0
    3.6703    1.0041    1.4962 H   0  0  0  0  0  0  0  0  0  0  0  0
    1.8307   -1.6061   -0.5973 H   0  0  0  0  0  0  0  0  0  0  0  0
    3.3006   -2.5449   -0.6859 H   0  0  0  0  0  0  0  0  0  0  0  0
    3.0330   -1.2373   -1.8543 H   0  0  0  0  0  0  0  0  0  0  0  0
    5.6078   -0.0750    0.8230 H   0  0  0  0  0  0  0  0  0  0  0  0
    5.3201   -1.8006    0.5671 H   0  0  0  0  0  0  0  0  0  0  0  0
    5.5526   -0.7161   -0.8229 H   0  0  0  0  0  0  0  0  0  0  0  0
  1  2  1  0
  2  3  1  0
  3  4  1  0
  3  5  1  0
  5  6  2  0
  6  7  1  0
  7  8  1  0
  8  9  2  0
  8 10  1  0
  7 11  2  0
 11 12  1  0
 12 13  1  0
 13 14  2  0
 13 15  1  0
 12 16  2  0
 16 17  1  0
 17 18  1  0
 18 19  2  0
 18 20  1  0
 20 21  2  3
 21 22  1  0
 21 23  1  0
 16  5  1  0
  1 24  1  0
  1 25  1  0
  1 26  1  0
  2 27  1  0
  2 28  1  0
  3 29  1  0
  4 30  1  0
  4 31  1  0
  4 32  1  0
  6 33  1  0
 11 34  1  0
 20 35  1  0
 22 36  1  0
 22 37  1  0
 22 38  1  0
 23 39  1  0
 23 40  1  0
 23 41  1  0
M  CHG  4   8   1  10  -1  13   1  15  -1
M  END
$$$$
