
     RDKit          3D

 43 43  0  0  0  0  0  0  0  0999 V2000
    5.2438    2.3425    0.0598 O   0  0  0  0  0  0  0  0  0  0  0  0
    5.9041    1.7013   -0.7403 C   0  0  0  0  0  0  0  0  0  0  0  0
    6.9806    2.2458   -1.3402 O   0  0  0  0  0  0  0  0  0  0  0  0
    5.6879    0.2732   -1.1609 C   0  0  0  0  0  0  0  0  0  0  0  0
    4.3968   -0.2863   -0.5762 C   0  0  0  0  0  0  0  0  0  0  0  0
    3.1832    0.3477   -1.2115 C   0  0  0  0  0  0  0  0  0  0  0  0
    3.1903    1.0178   -2.2341 O   0  0  0  0  0  0  0  0  0  0  0  0
    2.0720    0.0330   -0.4923 O   0  0  0  0  0  0  0  0  0  0  0  0
    0.8523    0.5857   -1.0152 C   0  0  0  0  0  0  0  0  0  0  0  0
   -0.3206    0.1793   -0.1037 C   0  0  0  0  0  0  0  0  0  0  0  0
   -0.5024   -1.2795   -0.1511 N   0  0  0  0  0  0  0  0  0  0  0  0
   -0.0910   -2.1277    0.8578 C   0  0  0  0  0  0  0  0  0  0  0  0
    0.3919   -1.7131    1.9124 O   0  0  0  0  0  0  0  0  0  0  0  0
   -0.2565   -3.6220    0.5858 C   0  0  0  0  0  0  0  0  0  0  0  0
   -1.9222   -3.9637    0.0614 Cl  0  0  0  0  0  0  0  0  0  0  0  0
    0.9013   -4.1091   -0.6705 Cl  0  0  0  0  0  0  0  0  0  0  0  0
   -1.6143    0.9143   -0.5394 C   0  0  0  0  0  0  0  0  0  0  0  0
   -2.0018    0.4803   -1.8488 O   0  0  0  0  0  0  0  0  0  0  0  0
   -2.7585    0.7304    0.4453 C   0  0  0  0  0  0  0  0  0  0  0  0
   -3.6543   -0.3476    0.3408 C   0  0  0  0  0  0  0  0  0  0  0  0
   -4.6801   -0.5203    1.2743 C   0  0  0  0  0  0  0  0  0  0  0  0
   -4.8133    0.3903    2.3279 C   0  0  0  0  0  0  0  0  0  0  0  0
   -5.8850    0.2115    3.3141 N   0  0  0  0  0  0  0  0  0  0  0  0
   -6.6204   -0.7786    3.1932 O   0  0  0  0  0  0  0  0  0  0  0  0
   -5.9948    1.0642    4.2072 O   0  0  0  0  0  0  0  0  0  0  0  0
   -3.9288    1.4683    2.4509 C   0  0  0  0  0  0  0  0  0  0  0  0
   -2.9063    1.6324    1.5122 C   0  0  0  0  0  0  0  0  0  0  0  0
    7.0072    3.1640   -0.9976 H   0  0  0  0  0  0  0  0  0  0  0  0
    6.5356   -0.3154   -0.7939 H   0  0  0  0  0  0  0  0  0  0  0  0
    5.6709    0.2263   -2.2551 H   0  0  0  0  0  0  0  0  0  0  0  0
    4.3626   -0.1167    0.5055 H   0  0  0  0  0  0  0  0  0  0  0  0
    4.3455   -1.3638   -0.7666 H   0  0  0  0  0  0  0  0  0  0  0  0
    0.6974    0.2093   -2.0338 H   0  0  0  0  0  0  0  0  0  0  0  0
    0.9432    1.6781   -1.0384 H   0  0  0  0  0  0  0  0  0  0  0  0
   -0.0690    0.4591    0.9268 H   0  0  0  0  0  0  0  0  0  0  0  0
   -0.8557   -1.6697   -1.0196 H   0  0  0  0  0  0  0  0  0  0  0  0
   -0.0600   -4.1901    1.4987 H   0  0  0  0  0  0  0  0  0  0  0  0
   -1.4081    1.9885   -0.6256 H   0  0  0  0  0  0  0  0  0  0  0  0
   -2.8854    0.8536   -2.0199 H   0  0  0  0  0  0  0  0  0  0  0  0
   -3.5508   -1.0730   -0.4652 H   0  0  0  0  0  0  0  0  0  0  0  0
   -5.3546   -1.3677    1.1695 H   0  0  0  0  0  0  0  0  0  0  0  0
   -4.0151    2.1793    3.2698 H   0  0  0  0  0  0  0  0  0  0  0  0
   -2.2176    2.4681    1.6281 H   0  0  0  0  0  0  0  0  0  0  0  0
  1  2  2  0
  2  3  1  0
  2  4  1  0
  4  5  1  0
  5  6  1  0
  6  7  2  0
  6  8  1  0
  8  9  1  0
  9 10  1  0
 10 11  1  0
 11 12  1  0
 12 13  2  0
 12 14  1  0
 14 15  1  0
 14 16  1  0
 10 17  1  0
 17 18  1  0
 17 19  1  0
 19 20  1  0
 20 21  2  0
 21 22  1  0
 22 23  1  0
 23 24  2  0
 23 25  1  0
 22 26  2  0
 26 27  1  0
 27 19  2  0
  3 28  1  0
  4 29  1  0
  4 30  1  0
  5 31  1  0
  5 32  1  0
  9 33  1  0
  9 34  1  0
 10 35  1  0
 11 36  1  0
 14 37  1  0
 17 38  1  0
 18 39  1  0
 20 40  1  0
 21 41  1  0
 26 42  1  0
 27 43  1  0
M  CHG  2  23   1  25  -1
M  END
$$$$
