
     RDKit          3D

 28 30  0  0  0  0  0  0  0  0999 V2000
    0.4395   -3.0302    0.6244 O   0  0  0  0  0  0  0  0  0  0  0  0
    0.3082   -1.8529    0.3753 C   0  0  0  0  0  0  0  0  0  0  0  0
    1.3828   -0.8733    0.1332 C   0  0  0  0  0  0  0  0  0  0  0  0
    2.7487   -1.0902    0.1456 C   0  0  0  0  0  0  0  0  0  0  0  0
    3.5558    0.0224   -0.1053 C   0  0  0  0  0  0  0  0  0  0  0  0
    5.0173   -0.1289   -0.1089 N   0  0  0  0  0  0  0  0  0  0  0  0
    5.6988    0.8838   -0.3189 O   0  0  0  0  0  0  0  0  0  0  0  0
    5.4780   -1.2592    0.0989 O   0  0  0  0  0  0  0  0  0  0  0  0
    2.9867    1.2931   -0.3530 C   0  0  0  0  0  0  0  0  0  0  0  0
    1.5923    1.4714   -0.3556 C   0  0  0  0  0  0  0  0  0  0  0  0
    0.7777    0.3758   -0.1143 C   0  0  0  0  0  0  0  0  0  0  0  0
   -0.6707    0.2232   -0.0449 C   0  0  0  0  0  0  0  0  0  0  0  0
   -0.9668   -1.1195    0.2599 C   0  0  0  0  0  0  0  0  0  0  0  0
   -2.2477   -1.6257    0.4218 C   0  0  0  0  0  0  0  0  0  0  0  0
   -3.3079   -0.7251    0.2694 C   0  0  0  0  0  0  0  0  0  0  0  0
   -4.6896   -1.1992    0.4303 N   0  0  0  0  0  0  0  0  0  0  0  0
   -5.5977   -0.3820    0.2313 O   0  0  0  0  0  0  0  0  0  0  0  0
   -4.8570   -2.3817    0.7527 O   0  0  0  0  0  0  0  0  0  0  0  0
   -3.0717    0.6309   -0.0394 C   0  0  0  0  0  0  0  0  0  0  0  0
   -1.7486    1.0830   -0.1978 C   0  0  0  0  0  0  0  0  0  0  0  0
   -1.5498    2.4717   -0.5315 N   0  0  0  0  0  0  0  0  0  0  0  0
   -1.7842    3.2963    0.3582 O   0  0  0  0  0  0  0  0  0  0  0  0
   -1.1667    2.7210   -1.6799 O   0  0  0  0  0  0  0  0  0  0  0  0
    3.1492   -2.0802    0.3440 H   0  0  0  0  0  0  0  0  0  0  0  0
    3.6221    2.1580   -0.5469 H   0  0  0  0  0  0  0  0  0  0  0  0
    1.1974    2.4649   -0.5487 H   0  0  0  0  0  0  0  0  0  0  0  0
   -2.3954   -2.6769    0.6586 H   0  0  0  0  0  0  0  0  0  0  0  0
   -3.9008    1.3293   -0.1585 H   0  0  0  0  0  0  0  0  0  0  0  0
  1  2  2  0
  2  3  1  0
  3  4  1  0
  4  5  2  0
  5  6  1  0
  6  7  2  0
  6  8  1  0
  5  9  1  0
  9 10  2  0
 10 11  1  0
 11 12  1  0
 12 13  2  0
 13 14  1  0
 14 15  2  0
 15 16  1  0
 16 17  2  0
 16 18  1  0
 15 19  1  0
 19 20  2  0
 20 21  1  0
 21 22  2  0
 21 23  1  0
 13  2  1  0
 11  3  2  0
 20 12  1  0
  4 24  1  0
  9 25  1  0
 10 26  1  0
 14 27  1  0
 19 28  1  0
M  CHG  6   6   1   8  -1  16   1  18  -1  21   1  23  -1
M  END
$$$$
