
     RDKit          3D

 28 29  0  0  0  0  0  0  0  0999 V2000
   -5.1342    0.5542   -1.4108 O   0  0  0  0  0  0  0  0  0  0  0  0
   -3.9692    0.9655   -1.3321 N   0  0  0  0  0  0  0  0  0  0  0  0
   -3.5710    2.0419   -1.8050 O   0  0  0  0  0  0  0  0  0  0  0  0
   -2.9882    0.1318   -0.6316 C   0  0  0  0  0  0  0  0  0  0  0  0
   -3.4026   -1.1189   -0.1513 C   0  0  0  0  0  0  0  0  0  0  0  0
   -2.4896   -1.9275    0.5157 C   0  0  0  0  0  0  0  0  0  0  0  0
   -2.9869   -3.4633    1.1101 Cl  0  0  0  0  0  0  0  0  0  0  0  0
   -1.1752   -1.5059    0.7086 C   0  0  0  0  0  0  0  0  0  0  0  0
   -0.7393   -0.2550    0.2336 C   0  0  0  0  0  0  0  0  0  0  0  0
    0.6632    0.1554    0.4497 C   0  0  0  0  0  0  0  0  0  0  0  0
    0.9470    1.2071    1.3406 C   0  0  0  0  0  0  0  0  0  0  0  0
    2.2582    1.6245    1.5625 C   0  0  0  0  0  0  0  0  0  0  0  0
    2.5672    2.9136    2.6586 Cl  0  0  0  0  0  0  0  0  0  0  0  0
    3.3184    1.0086    0.9075 C   0  0  0  0  0  0  0  0  0  0  0  0
    3.0567   -0.0421    0.0163 C   0  0  0  0  0  0  0  0  0  0  0  0
    4.1913   -0.6746   -0.6624 N   0  0  0  0  0  0  0  0  0  0  0  0
    3.9384   -1.5607   -1.4942 O   0  0  0  0  0  0  0  0  0  0  0  0
    5.3324   -0.2948   -0.3688 O   0  0  0  0  0  0  0  0  0  0  0  0
    1.7372   -0.4743   -0.2151 C   0  0  0  0  0  0  0  0  0  0  0  0
    1.4109   -1.4976   -1.0730 O   0  0  0  0  0  0  0  0  0  0  0  0
   -1.6641    0.5700   -0.4415 C   0  0  0  0  0  0  0  0  0  0  0  0
   -1.1929    1.7831   -0.8845 O   0  0  0  0  0  0  0  0  0  0  0  0
   -4.4231   -1.4698   -0.2919 H   0  0  0  0  0  0  0  0  0  0  0  0
   -0.4742   -2.1592    1.2261 H   0  0  0  0  0  0  0  0  0  0  0  0
    0.1308    1.7095    1.8577 H   0  0  0  0  0  0  0  0  0  0  0  0
    4.3337    1.3527    1.0949 H   0  0  0  0  0  0  0  0  0  0  0  0
    2.2107   -1.8338   -1.5303 H   0  0  0  0  0  0  0  0  0  0  0  0
   -1.8856    2.2596   -1.3895 H   0  0  0  0  0  0  0  0  0  0  0  0
  1  2  2  0
  2  3  1  0
  2  4  1  0
  4  5  2  0
  5  6  1  0
  6  7  1  0
  6  8  2  0
  8  9  1  0
  9 10  1  0
 10 11  1  0
 11 12  2  0
 12 13  1  0
 12 14  1  0
 14 15  2  0
 15 16  1  0
 16 17  2  0
 16 18  1  0
 15 19  1  0
 19 20  1  0
  9 21  2  0
 21 22  1  0
 21  4  1  0
 19 10  2  0
  5 23  1  0
  8 24  1  0
 11 25  1  0
 14 26  1  0
 20 27  1  0
 22 28  1  0
M  CHG  4   2   1   3  -1  16   1  18  -1
M  END
$$$$
