
     RDKit          3D

 26 26  0  0  0  0  0  0  0  0999 V2000
   -4.6498    2.2457    0.5697 O   0  0  0  0  0  0  0  0  0  0  0  0
   -3.4945    2.3065    0.1242 N   0  0  0  0  0  0  0  0  0  0  0  0
   -2.9623    3.3379   -0.3095 O   0  0  0  0  0  0  0  0  0  0  0  0
   -2.7069    1.0675    0.1037 C   0  0  0  0  0  0  0  0  0  0  0  0
   -3.3105   -0.1436    0.4657 C   0  0  0  0  0  0  0  0  0  0  0  0
   -2.5574   -1.3193    0.4517 C   0  0  0  0  0  0  0  0  0  0  0  0
   -1.2134   -1.2792    0.0742 C   0  0  0  0  0  0  0  0  0  0  0  0
   -0.4721   -2.4271    0.0771 O   0  0  0  0  0  0  0  0  0  0  0  0
   -0.5993   -0.0772   -0.3037 C   0  0  0  0  0  0  0  0  0  0  0  0
    0.8589   -0.0132   -0.6951 C   0  0  0  0  0  0  0  0  0  0  0  0
    1.6665    0.4465    0.4344 N   0  0  0  0  0  0  0  0  0  0  0  0
    3.0923    0.5613    0.1015 C   0  0  0  0  0  0  0  0  0  0  0  0
    3.8206   -0.7776   -0.0535 C   0  0  0  0  0  0  0  0  0  0  0  0
    5.5581   -0.5151   -0.3460 Cl  0  0  0  0  0  0  0  0  0  0  0  0
   -1.3589    1.1061   -0.2766 C   0  0  0  0  0  0  0  0  0  0  0  0
   -4.3563   -0.1862    0.7631 H   0  0  0  0  0  0  0  0  0  0  0  0
   -3.0323   -2.2525    0.7419 H   0  0  0  0  0  0  0  0  0  0  0  0
   -1.0380   -3.1707    0.3457 H   0  0  0  0  0  0  0  0  0  0  0  0
    0.9610    0.6783   -1.5413 H   0  0  0  0  0  0  0  0  0  0  0  0
    1.1928   -0.9918   -1.0559 H   0  0  0  0  0  0  0  0  0  0  0  0
    1.5399   -0.2059    1.2088 H   0  0  0  0  0  0  0  0  0  0  0  0
    3.5637    1.1245    0.9163 H   0  0  0  0  0  0  0  0  0  0  0  0
    3.2166    1.1734   -0.8005 H   0  0  0  0  0  0  0  0  0  0  0  0
    3.7267   -1.3834    0.8531 H   0  0  0  0  0  0  0  0  0  0  0  0
    3.4352   -1.3530   -0.8993 H   0  0  0  0  0  0  0  0  0  0  0  0
   -0.8807    2.0480   -0.5431 H   0  0  0  0  0  0  0  0  0  0  0  0
  1  2  2  0
  2  3  1  0
  2  4  1  0
  4  5  1  0
  5  6  2  0
  6  7  1  0
  7  8  1  0
  7  9  2  0
  9 10  1  0
 10 11  1  0
 11 12  1  0
 12 13  1  0
 13 14  1  0
  9 15  1  0
 15  4  2  0
  5 16  1  0
  6 17  1  0
  8 18  1  0
 10 19  1  0
 10 20  1  0
 11 21  1  0
 12 22  1  0
 12 23  1  0
 13 24  1  0
 13 25  1  0
 15 26  1  0
M  CHG  2   2   1   3  -1
M  END
$$$$
