
     RDKit          3D

 16 16  0  0  0  0  0  0  0  0999 V2000
   -2.8031   -0.2538    0.0878 N   0  0  0  0  0  0  0  0  0  0  0  0
   -1.4070   -0.0813   -0.0197 C   0  0  0  0  0  0  0  0  0  0  0  0
   -0.7446    0.9191    0.7197 C   0  0  0  0  0  0  0  0  0  0  0  0
   -1.6475    2.0880    1.6228 Cl  0  0  0  0  0  0  0  0  0  0  0  0
    0.6489    1.0173    0.7318 C   0  0  0  0  0  0  0  0  0  0  0  0
    1.4054    0.0803    0.0208 C   0  0  0  0  0  0  0  0  0  0  0  0
    2.8700    0.1741    0.0288 N   0  0  0  0  0  0  0  0  0  0  0  0
    3.5032   -0.6759   -0.6113 O   0  0  0  0  0  0  0  0  0  0  0  0
    3.3827    1.0993    0.6724 O   0  0  0  0  0  0  0  0  0  0  0  0
    0.7825   -0.9498   -0.6907 C   0  0  0  0  0  0  0  0  0  0  0  0
   -0.6122   -1.0319   -0.6912 C   0  0  0  0  0  0  0  0  0  0  0  0
   -1.3477   -2.3287   -1.5712 Cl  0  0  0  0  0  0  0  0  0  0  0  0
   -3.2147   -0.7791   -0.6808 H   0  0  0  0  0  0  0  0  0  0  0  0
   -3.3083    0.5997    0.3163 H   0  0  0  0  0  0  0  0  0  0  0  0
    1.1272    1.8134    1.2993 H   0  0  0  0  0  0  0  0  0  0  0  0
    1.3651   -1.6908   -1.2348 H   0  0  0  0  0  0  0  0  0  0  0  0
  1  2  1  0
  2  3  1  0
  3  4  1  0
  3  5  2  0
  5  6  1  0
  6  7  1  0
  7  8  2  0
  7  9  1  0
  6 10  2  0
 10 11  1  0
 11 12  1  0
 11  2  2  0
  1 13  1  0
  1 14  1  0
  5 15  1  0
 10 16  1  0
M  CHG  2   7   1   9  -1
M  END
$$$$
