
     RDKit          3D

 26 26  0  0  0  0  0  0  0  0999 V2000
   -1.7661   -1.6901    0.4166 C   0  0  0  0  0  0  0  0  0  0  0  0
   -2.4090   -0.5069   -0.0025 O   0  0  0  0  0  0  0  0  0  0  0  0
   -1.8714    0.9430    0.4766 P   0  0  0  0  0  0  0  0  0  0  0  0
   -1.8454    1.3158    2.3827 S   0  0  0  0  0  0  0  0  0  0  0  0
   -2.8787    1.9004   -0.3647 O   0  0  0  0  0  0  0  0  0  0  0  0
   -4.2582    1.8747   -0.0560 C   0  0  0  0  0  0  0  0  0  0  0  0
   -0.5279    1.1611   -0.3903 O   0  0  0  0  0  0  0  0  0  0  0  0
    0.6829    0.5463   -0.2770 C   0  0  0  0  0  0  0  0  0  0  0  0
    1.1862   -0.0278    0.8874 C   0  0  0  0  0  0  0  0  0  0  0  0
    2.4543   -0.6221    0.8864 C   0  0  0  0  0  0  0  0  0  0  0  0
    3.2194   -0.6299   -0.2870 C   0  0  0  0  0  0  0  0  0  0  0  0
    4.5482   -1.2544   -0.2886 N   0  0  0  0  0  0  0  0  0  0  0  0
    4.9294   -1.7989    0.7571 O   0  0  0  0  0  0  0  0  0  0  0  0
    5.2067   -1.2051   -1.3371 O   0  0  0  0  0  0  0  0  0  0  0  0
    2.7250   -0.0427   -1.4561 C   0  0  0  0  0  0  0  0  0  0  0  0
    1.4586    0.5470   -1.4414 C   0  0  0  0  0  0  0  0  0  0  0  0
   -1.4308   -1.6222    1.4537 H   0  0  0  0  0  0  0  0  0  0  0  0
   -0.9197   -1.9042   -0.2397 H   0  0  0  0  0  0  0  0  0  0  0  0
   -2.4777   -2.5164    0.3388 H   0  0  0  0  0  0  0  0  0  0  0  0
   -4.4491    2.4541    0.8507 H   0  0  0  0  0  0  0  0  0  0  0  0
   -4.6147    0.8496    0.0749 H   0  0  0  0  0  0  0  0  0  0  0  0
   -4.8075    2.3318   -0.8831 H   0  0  0  0  0  0  0  0  0  0  0  0
    0.6359   -0.0198    1.8216 H   0  0  0  0  0  0  0  0  0  0  0  0
    2.8313   -1.0624    1.8082 H   0  0  0  0  0  0  0  0  0  0  0  0
    3.3057   -0.0314   -2.3763 H   0  0  0  0  0  0  0  0  0  0  0  0
    1.0728    1.0103   -2.3480 H   0  0  0  0  0  0  0  0  0  0  0  0
  1  2  1  0
  2  3  1  0
  3  4  2  0
  3  5  1  0
  5  6  1  0
  3  7  1  0
  7  8  1  0
  8  9  1  0
  9 10  2  0
 10 11  1  0
 11 12  1  0
 12 13  2  0
 12 14  1  0
 11 15  2  0
 15 16  1  0
 16  8  2  0
  1 17  1  0
  1 18  1  0
  1 19  1  0
  6 20  1  0
  6 21  1  0
  6 22  1  0
  9 23  1  0
 10 24  1  0
 15 25  1  0
 16 26  1  0
M  CHG  2  12   1  14  -1
M  END
$$$$
