
     RDKit          3D

 18 18  0  0  0  0  0  0  0  0999 V2000
    2.8268   -1.0472    0.2034 N   0  0  0  0  0  0  0  0  0  0  0  0
    1.5704   -0.4374    0.2091 C   0  0  0  0  0  0  0  0  0  0  0  0
    1.4623    0.9489    0.3209 C   0  0  0  0  0  0  0  0  0  0  0  0
    0.2209    1.5885    0.2070 C   0  0  0  0  0  0  0  0  0  0  0  0
   -0.9535    0.8622   -0.0229 C   0  0  0  0  0  0  0  0  0  0  0  0
   -2.1373    1.5823   -0.2584 N   0  0  0  0  0  0  0  0  0  0  0  0
   -0.8140   -0.5207   -0.2438 C   0  0  0  0  0  0  0  0  0  0  0  0
   -1.9743   -1.3458   -0.5789 N   0  0  0  0  0  0  0  0  0  0  0  0
   -1.7809   -2.3590   -1.2675 O   0  0  0  0  0  0  0  0  0  0  0  0
   -3.0805   -1.0009   -0.1317 O   0  0  0  0  0  0  0  0  0  0  0  0
    0.4323   -1.1651   -0.1317 C   0  0  0  0  0  0  0  0  0  0  0  0
    2.8191   -2.0419    0.4084 H   0  0  0  0  0  0  0  0  0  0  0  0
    3.5392   -0.5510    0.7305 H   0  0  0  0  0  0  0  0  0  0  0  0
    2.3508    1.5547    0.4842 H   0  0  0  0  0  0  0  0  0  0  0  0
    0.1863    2.6732    0.2838 H   0  0  0  0  0  0  0  0  0  0  0  0
   -2.1973    2.4692    0.2333 H   0  0  0  0  0  0  0  0  0  0  0  0
   -2.9864    1.0241   -0.1305 H   0  0  0  0  0  0  0  0  0  0  0  0
    0.5160   -2.2341   -0.3155 H   0  0  0  0  0  0  0  0  0  0  0  0
  1  2  1  0
  2  3  1  0
  3  4  2  0
  4  5  1  0
  5  6  1  0
  5  7  2  0
  7  8  1  0
  8  9  2  0
  8 10  1  0
  7 11  1  0
 11  2  2  0
  1 12  1  0
  1 13  1  0
  3 14  1  0
  4 15  1  0
  6 16  1  0
  6 17  1  0
 11 18  1  0
M  CHG  2   8   1  10  -1
M  END
$$$$
