
     RDKit          3D

 22 23  0  0  0  0  0  0  0  0999 V2000
   -0.5372    2.3880    1.6549 O   0  0  0  0  0  0  0  0  0  0  0  0
   -0.6998    1.1653    1.7735 N   0  0  0  0  0  0  0  0  0  0  0  0
   -0.4616    0.4945    2.7864 O   0  0  0  0  0  0  0  0  0  0  0  0
   -1.2190    0.4618    0.6282 C   0  0  0  0  0  0  0  0  0  0  0  0
   -2.6036    0.4033    0.4477 C   0  0  0  0  0  0  0  0  0  0  0  0
   -3.7333    1.1446    1.5235 Cl  0  0  0  0  0  0  0  0  0  0  0  0
   -3.1156   -0.2918   -0.6509 C   0  0  0  0  0  0  0  0  0  0  0  0
   -2.2515   -0.9197   -1.5498 C   0  0  0  0  0  0  0  0  0  0  0  0
   -0.8690   -0.8557   -1.3570 C   0  0  0  0  0  0  0  0  0  0  0  0
   -0.3312   -0.1605   -0.2638 C   0  0  0  0  0  0  0  0  0  0  0  0
    1.1128   -0.1281   -0.1070 C   0  0  0  0  0  0  0  0  0  0  0  0
    1.8549    1.0325   -0.2206 C   0  0  0  0  0  0  0  0  0  0  0  0
    3.1752    0.7168   -0.0177 N   0  0  0  0  0  0  0  0  0  0  0  0
    3.2926   -0.6314    0.1972 C   0  0  0  0  0  0  0  0  0  0  0  0
    2.0324   -1.1820    0.1459 C   0  0  0  0  0  0  0  0  0  0  0  0
    1.6440   -2.8221    0.3621 Cl  0  0  0  0  0  0  0  0  0  0  0  0
   -4.1900   -0.3531   -0.8126 H   0  0  0  0  0  0  0  0  0  0  0  0
   -2.6548   -1.4632   -2.4021 H   0  0  0  0  0  0  0  0  0  0  0  0
   -0.2121   -1.3533   -2.0698 H   0  0  0  0  0  0  0  0  0  0  0  0
    1.5650    2.0579   -0.4168 H   0  0  0  0  0  0  0  0  0  0  0  0
    3.9423    1.3783   -0.0259 H   0  0  0  0  0  0  0  0  0  0  0  0
    4.2595   -1.0822    0.3748 H   0  0  0  0  0  0  0  0  0  0  0  0
  1  2  2  0
  2  3  1  0
  2  4  1  0
  4  5  2  0
  5  6  1  0
  5  7  1  0
  7  8  2  0
  8  9  1  0
  9 10  2  0
 10 11  1  0
 11 12  2  0
 12 13  1  0
 13 14  1  0
 14 15  2  0
 15 16  1  0
 10  4  1  0
 15 11  1  0
  7 17  1  0
  8 18  1  0
  9 19  1  0
 12 20  1  0
 13 21  1  0
 14 22  1  0
M  CHG  2   2   1   3  -1
M  END
$$$$
