
     RDKit          3D

 19 19  0  0  0  0  0  0  0  0999 V2000
   -2.5755   -0.2734    0.1297 C   0  0  0  0  0  0  0  0  0  0  0  0
   -1.0764   -0.2769    0.0307 C   0  0  0  0  0  0  0  0  0  0  0  0
   -0.4104   -1.4891   -0.1929 C   0  0  0  0  0  0  0  0  0  0  0  0
    0.9865   -1.5346   -0.2877 C   0  0  0  0  0  0  0  0  0  0  0  0
    1.7605   -0.3830   -0.1256 C   0  0  0  0  0  0  0  0  0  0  0  0
    3.1413   -0.4268   -0.3387 N   0  0  0  0  0  0  0  0  0  0  0  0
    1.1106    0.8404    0.0236 C   0  0  0  0  0  0  0  0  0  0  0  0
   -0.2905    0.8861    0.1101 C   0  0  0  0  0  0  0  0  0  0  0  0
   -0.9011    2.1998    0.2770 N   0  0  0  0  0  0  0  0  0  0  0  0
   -0.4224    2.9371    1.1505 O   0  0  0  0  0  0  0  0  0  0  0  0
   -1.8415    2.4975   -0.4718 O   0  0  0  0  0  0  0  0  0  0  0  0
   -2.9594   -1.2785    0.3363 H   0  0  0  0  0  0  0  0  0  0  0  0
   -3.0179    0.0702   -0.8103 H   0  0  0  0  0  0  0  0  0  0  0  0
   -2.9124    0.3657    0.9522 H   0  0  0  0  0  0  0  0  0  0  0  0
   -0.9725   -2.4149   -0.3052 H   0  0  0  0  0  0  0  0  0  0  0  0
    1.4671   -2.4895   -0.4893 H   0  0  0  0  0  0  0  0  0  0  0  0
    3.5658   -1.3283   -0.1418 H   0  0  0  0  0  0  0  0  0  0  0  0
    3.6572    0.3389    0.0852 H   0  0  0  0  0  0  0  0  0  0  0  0
    1.6908    1.7594    0.0679 H   0  0  0  0  0  0  0  0  0  0  0  0
  1  2  1  0
  2  3  1  0
  3  4  2  0
  4  5  1  0
  5  6  1  0
  5  7  2  0
  7  8  1  0
  8  9  1  0
  9 10  2  0
  9 11  1  0
  8  2  2  0
  1 12  1  0
  1 13  1  0
  1 14  1  0
  3 15  1  0
  4 16  1  0
  6 17  1  0
  6 18  1  0
  7 19  1  0
M  CHG  2   9   1  11  -1
M  END
$$$$
