
     RDKit          3D

 44 45  0  0  0  0  0  0  0  0999 V2000
   -1.7659   -1.8049   -1.0700 C   0  0  0  0  0  0  0  0  0  0  0  0
   -2.3975   -0.3991   -1.0329 C   0  0  0  0  0  0  0  0  0  0  0  0
   -3.9278   -0.6290   -0.8919 C   0  0  0  0  0  0  0  0  0  0  0  0
   -2.2095    0.2964   -2.4011 C   0  0  0  0  0  0  0  0  0  0  0  0
   -1.7860    0.4667    0.1084 C   0  0  0  0  0  0  0  0  0  0  0  0
   -2.6185    0.9171    1.1667 C   0  0  0  0  0  0  0  0  0  0  0  0
   -2.1445    1.7579    2.1909 C   0  0  0  0  0  0  0  0  0  0  0  0
   -3.0574    2.1969    3.2570 N   0  0  0  0  0  0  0  0  0  0  0  0
   -4.1981    1.7156    3.2744 O   0  0  0  0  0  0  0  0  0  0  0  0
   -2.6315    3.0327    4.0657 O   0  0  0  0  0  0  0  0  0  0  0  0
   -0.8327    2.2140    2.1812 C   0  0  0  0  0  0  0  0  0  0  0  0
    0.0026    1.7724    1.1536 C   0  0  0  0  0  0  0  0  0  0  0  0
    1.3295    2.3620    1.0977 N   0  0  0  0  0  0  0  0  0  0  0  0
    1.6325    2.9601    0.0545 O   0  0  0  0  0  0  0  0  0  0  0  0
    2.0526    2.2387    2.0935 O   0  0  0  0  0  0  0  0  0  0  0  0
   -0.4127    0.8480    0.1545 C   0  0  0  0  0  0  0  0  0  0  0  0
    0.4857    0.3861   -0.8526 N   0  0  0  0  0  0  0  0  0  0  0  0
    1.7705   -0.1956   -0.6424 C   0  0  0  0  0  0  0  0  0  0  0  0
    2.7894    0.1456   -1.5547 C   0  0  0  0  0  0  0  0  0  0  0  0
    4.0806   -0.3904   -1.4532 C   0  0  0  0  0  0  0  0  0  0  0  0
    4.3749   -1.3098   -0.4409 C   0  0  0  0  0  0  0  0  0  0  0  0
    5.7262   -1.8758   -0.3384 N   0  0  0  0  0  0  0  0  0  0  0  0
    5.9480   -2.6605    0.5934 O   0  0  0  0  0  0  0  0  0  0  0  0
    6.5576   -1.5367   -1.1911 O   0  0  0  0  0  0  0  0  0  0  0  0
    3.3853   -1.7056    0.4608 C   0  0  0  0  0  0  0  0  0  0  0  0
    2.0997   -1.1504    0.3409 C   0  0  0  0  0  0  0  0  0  0  0  0
    1.1070   -1.6711    1.2554 N   0  0  0  0  0  0  0  0  0  0  0  0
    0.8368   -0.9846    2.2490 O   0  0  0  0  0  0  0  0  0  0  0  0
    0.6509   -2.7931    1.0029 O   0  0  0  0  0  0  0  0  0  0  0  0
   -1.8569   -2.3003   -0.0968 H   0  0  0  0  0  0  0  0  0  0  0  0
   -2.2635   -2.4416   -1.8114 H   0  0  0  0  0  0  0  0  0  0  0  0
   -0.7088   -1.7894   -1.3430 H   0  0  0  0  0  0  0  0  0  0  0  0
   -4.1727   -1.1788    0.0245 H   0  0  0  0  0  0  0  0  0  0  0  0
   -4.3187   -1.2227   -1.7277 H   0  0  0  0  0  0  0  0  0  0  0  0
   -4.4810    0.3176   -0.8893 H   0  0  0  0  0  0  0  0  0  0  0  0
   -2.5861    1.3257   -2.3747 H   0  0  0  0  0  0  0  0  0  0  0  0
   -1.1663    0.3332   -2.7234 H   0  0  0  0  0  0  0  0  0  0  0  0
   -2.7523   -0.2351   -3.1922 H   0  0  0  0  0  0  0  0  0  0  0  0
   -3.6646    0.6198    1.2072 H   0  0  0  0  0  0  0  0  0  0  0  0
   -0.4619    2.8993    2.9411 H   0  0  0  0  0  0  0  0  0  0  0  0
    0.5583    1.1314   -1.5541 H   0  0  0  0  0  0  0  0  0  0  0  0
    2.5960    0.8575   -2.3571 H   0  0  0  0  0  0  0  0  0  0  0  0
    4.8385   -0.0793   -2.1716 H   0  0  0  0  0  0  0  0  0  0  0  0
    3.5924   -2.4409    1.2375 H   0  0  0  0  0  0  0  0  0  0  0  0
  1  2  1  0
  2  3  1  0
  2  4  1  0
  2  5  1  0
  5  6  2  0
  6  7  1  0
  7  8  1  0
  8  9  2  0
  8 10  1  0
  7 11  2  0
 11 12  1  0
 12 13  1  0
 13 14  2  0
 13 15  1  0
 12 16  2  0
 16 17  1  0
 17 18  1  0
 18 19  1  0
 19 20  2  0
 20 21  1  0
 21 22  1  0
 22 23  2  0
 22 24  1  0
 21 25  2  0
 25 26  1  0
 26 27  1  0
 27 28  2  0
 27 29  1  0
 16  5  1  0
 26 18  2  0
  1 30  1  0
  1 31  1  0
  1 32  1  0
  3 33  1  0
  3 34  1  0
  3 35  1  0
  4 36  1  0
  4 37  1  0
  4 38  1  0
  6 39  1  0
 11 40  1  0
 17 41  1  0
 19 42  1  0
 20 43  1  0
 25 44  1  0
M  CHG  8   8   1  10  -1  13   1  15  -1  22   1  24  -1  27   1  29  -1
M  END
$$$$
