
     RDKit          3D

 16 16  0  0  0  0  0  0  0  0999 V2000
   -3.3897    1.2204    0.1928 O   0  0  0  0  0  0  0  0  0  0  0  0
   -2.8804    0.1458   -0.1219 C   0  0  0  0  0  0  0  0  0  0  0  0
   -3.8186   -1.2442   -0.6224 Cl  0  0  0  0  0  0  0  0  0  0  0  0
   -1.3822    0.0568   -0.0627 C   0  0  0  0  0  0  0  0  0  0  0  0
   -0.6510    1.1876    0.3426 C   0  0  0  0  0  0  0  0  0  0  0  0
    0.7462    1.1506    0.4126 C   0  0  0  0  0  0  0  0  0  0  0  0
    1.4221   -0.0274    0.0746 C   0  0  0  0  0  0  0  0  0  0  0  0
    2.8887   -0.0743    0.1453 N   0  0  0  0  0  0  0  0  0  0  0  0
    3.4448   -1.1377   -0.1630 O   0  0  0  0  0  0  0  0  0  0  0  0
    3.4807    0.9513    0.5087 O   0  0  0  0  0  0  0  0  0  0  0  0
    0.7078   -1.1625   -0.3312 C   0  0  0  0  0  0  0  0  0  0  0  0
   -0.6910   -1.1177   -0.3987 C   0  0  0  0  0  0  0  0  0  0  0  0
   -1.1672    2.1105    0.6081 H   0  0  0  0  0  0  0  0  0  0  0  0
    1.2842    2.0424    0.7300 H   0  0  0  0  0  0  0  0  0  0  0  0
    1.2208   -2.0858   -0.5972 H   0  0  0  0  0  0  0  0  0  0  0  0
   -1.2151   -2.0160   -0.7174 H   0  0  0  0  0  0  0  0  0  0  0  0
  1  2  2  0
  2  3  1  0
  2  4  1  0
  4  5  1  0
  5  6  2  0
  6  7  1  0
  7  8  1  0
  8  9  2  0
  8 10  1  0
  7 11  2  0
 11 12  1  0
 12  4  2  0
  5 13  1  0
  6 14  1  0
 11 15  1  0
 12 16  1  0
M  CHG  2   8   1  10  -1
M  END
$$$$
