
     RDKit          3D

 20 20  0  0  0  0  0  0  0  0999 V2000
    3.4223    0.5927   -0.2556 C   0  0  0  0  0  0  0  0  0  0  0  0
    2.1796    1.2785   -0.1600 O   0  0  0  0  0  0  0  0  0  0  0  0
    1.0520    0.5123   -0.0709 C   0  0  0  0  0  0  0  0  0  0  0  0
    1.0037   -0.8801   -0.0659 C   0  0  0  0  0  0  0  0  0  0  0  0
   -0.2264   -1.5463    0.0296 C   0  0  0  0  0  0  0  0  0  0  0  0
   -1.4388   -0.8454    0.0817 C   0  0  0  0  0  0  0  0  0  0  0  0
   -2.6138   -1.5800    0.3158 N   0  0  0  0  0  0  0  0  0  0  0  0
   -1.3646    0.5592    0.1291 C   0  0  0  0  0  0  0  0  0  0  0  0
   -2.5758    1.3697    0.2483 N   0  0  0  0  0  0  0  0  0  0  0  0
   -3.6233    0.9235   -0.2477 O   0  0  0  0  0  0  0  0  0  0  0  0
   -2.4806    2.4655    0.8207 O   0  0  0  0  0  0  0  0  0  0  0  0
   -0.1359    1.2338    0.0348 C   0  0  0  0  0  0  0  0  0  0  0  0
    3.4667   -0.0185   -1.1631 H   0  0  0  0  0  0  0  0  0  0  0  0
    4.2148    1.3443   -0.3208 H   0  0  0  0  0  0  0  0  0  0  0  0
    3.6086   -0.0117    0.6383 H   0  0  0  0  0  0  0  0  0  0  0  0
    1.9043   -1.4839   -0.1202 H   0  0  0  0  0  0  0  0  0  0  0  0
   -0.2258   -2.6341    0.0678 H   0  0  0  0  0  0  0  0  0  0  0  0
   -3.4671   -1.0782    0.0522 H   0  0  0  0  0  0  0  0  0  0  0  0
   -2.6066   -2.5226   -0.0629 H   0  0  0  0  0  0  0  0  0  0  0  0
   -0.0935    2.3214    0.0489 H   0  0  0  0  0  0  0  0  0  0  0  0
  1  2  1  0
  2  3  1  0
  3  4  1  0
  4  5  2  0
  5  6  1  0
  6  7  1  0
  6  8  2  0
  8  9  1  0
  9 10  2  0
  9 11  1  0
  8 12  1  0
 12  3  2  0
  1 13  1  0
  1 14  1  0
  1 15  1  0
  4 16  1  0
  5 17  1  0
  7 18  1  0
  7 19  1  0
 12 20  1  0
M  CHG  2   9   1  11  -1
M  END
$$$$
