
     RDKit          3D

 17 17  0  0  0  0  0  0  0  0999 V2000
   -2.0451    1.4990   -0.4353 N   0  0  0  0  0  0  0  0  0  0  0  0
   -0.9766    0.6046   -0.2619 C   0  0  0  0  0  0  0  0  0  0  0  0
    0.3348    1.0788   -0.2144 C   0  0  0  0  0  0  0  0  0  0  0  0
    1.3810    0.1967    0.0920 C   0  0  0  0  0  0  0  0  0  0  0  0
    2.7617    0.6938    0.1180 N   0  0  0  0  0  0  0  0  0  0  0  0
    3.6492   -0.0922    0.4799 O   0  0  0  0  0  0  0  0  0  0  0  0
    2.9611    1.8668   -0.2280 O   0  0  0  0  0  0  0  0  0  0  0  0
    1.1248   -1.1515    0.3844 C   0  0  0  0  0  0  0  0  0  0  0  0
   -0.1904   -1.6179    0.3819 C   0  0  0  0  0  0  0  0  0  0  0  0
   -1.2262   -0.7364    0.0762 C   0  0  0  0  0  0  0  0  0  0  0  0
   -2.5282   -1.1662    0.0717 O   0  0  0  0  0  0  0  0  0  0  0  0
   -2.9045    0.9959   -0.6571 H   0  0  0  0  0  0  0  0  0  0  0  0
   -1.8566    2.2676   -1.0689 H   0  0  0  0  0  0  0  0  0  0  0  0
    0.5297    2.1311   -0.4065 H   0  0  0  0  0  0  0  0  0  0  0  0
    1.9322   -1.8405    0.6245 H   0  0  0  0  0  0  0  0  0  0  0  0
   -0.3880   -2.6586    0.6203 H   0  0  0  0  0  0  0  0  0  0  0  0
   -2.5589   -2.0710    0.4232 H   0  0  0  0  0  0  0  0  0  0  0  0
  1  2  1  0
  2  3  1  0
  3  4  2  0
  4  5  1  0
  5  6  2  0
  5  7  1  0
  4  8  1  0
  8  9  2  0
  9 10  1  0
 10 11  1  0
 10  2  2  0
  1 12  1  0
  1 13  1  0
  3 14  1  0
  8 15  1  0
  9 16  1  0
 11 17  1  0
M  CHG  2   5   1   7  -1
M  END
$$$$
