
     RDKit          3D

 21 21  0  0  0  0  0  0  0  0999 V2000
   -2.4595    0.0012   -0.2941 C   0  0  0  0  0  0  0  0  0  0  0  0
   -0.9622    0.0010   -0.1183 C   0  0  0  0  0  0  0  0  0  0  0  0
   -0.2448    1.1807    0.1718 C   0  0  0  0  0  0  0  0  0  0  0  0
   -0.9383    2.4498    0.3600 N   0  0  0  0  0  0  0  0  0  0  0  0
   -1.8089    2.4909    1.2367 O   0  0  0  0  0  0  0  0  0  0  0  0
   -0.5858    3.3891   -0.3626 O   0  0  0  0  0  0  0  0  0  0  0  0
    1.1541    1.2031    0.3042 C   0  0  0  0  0  0  0  0  0  0  0  0
    1.8678    0.0082    0.1675 C   0  0  0  0  0  0  0  0  0  0  0  0
    3.3304    0.0131    0.3082 N   0  0  0  0  0  0  0  0  0  0  0  0
    3.8780    1.0979    0.5412 O   0  0  0  0  0  0  0  0  0  0  0  0
    3.9192   -1.0687    0.1887 O   0  0  0  0  0  0  0  0  0  0  0  0
    1.1996   -1.1940   -0.0858 C   0  0  0  0  0  0  0  0  0  0  0  0
   -0.2000   -1.1825   -0.2128 C   0  0  0  0  0  0  0  0  0  0  0  0
   -0.8448   -2.4705   -0.4407 N   0  0  0  0  0  0  0  0  0  0  0  0
   -0.4622   -3.1187   -1.4217 O   0  0  0  0  0  0  0  0  0  0  0  0
   -1.7081   -2.8196    0.3726 O   0  0  0  0  0  0  0  0  0  0  0  0
   -2.9520   -0.1648    0.6688 H   0  0  0  0  0  0  0  0  0  0  0  0
   -2.8149    0.9448   -0.7203 H   0  0  0  0  0  0  0  0  0  0  0  0
   -2.7824   -0.7713   -0.9994 H   0  0  0  0  0  0  0  0  0  0  0  0
    1.6668    2.1421    0.5158 H   0  0  0  0  0  0  0  0  0  0  0  0
    1.7480   -2.1320   -0.1798 H   0  0  0  0  0  0  0  0  0  0  0  0
  1  2  1  0
  2  3  2  0
  3  4  1  0
  4  5  2  0
  4  6  1  0
  3  7  1  0
  7  8  2  0
  8  9  1  0
  9 10  2  0
  9 11  1  0
  8 12  1  0
 12 13  2  0
 13 14  1  0
 14 15  2  0
 14 16  1  0
 13  2  1  0
  1 17  1  0
  1 18  1  0
  1 19  1  0
  7 20  1  0
 12 21  1  0
M  CHG  6   4   1   6  -1   9   1  11  -1  14   1  16  -1
M  END
$$$$
