
     RDKit          3D

 18 18  0  0  0  0  0  0  0  0999 V2000
    2.6696   -0.3285   -0.6599 C   0  0  0  0  0  0  0  0  0  0  0  0
    1.6073    0.5878   -0.4252 O   0  0  0  0  0  0  0  0  0  0  0  0
    0.3793    0.0720   -0.1185 C   0  0  0  0  0  0  0  0  0  0  0  0
    0.0543   -1.2876   -0.1557 C   0  0  0  0  0  0  0  0  0  0  0  0
   -1.2455   -1.7198    0.1447 C   0  0  0  0  0  0  0  0  0  0  0  0
   -2.2417   -0.8027    0.4816 C   0  0  0  0  0  0  0  0  0  0  0  0
   -1.9421    0.5555    0.5246 C   0  0  0  0  0  0  0  0  0  0  0  0
   -0.6365    0.9718    0.2297 C   0  0  0  0  0  0  0  0  0  0  0  0
   -0.3541    2.3909    0.2970 N   0  0  0  0  0  0  0  0  0  0  0  0
   -0.9594    3.1202   -0.5021 O   0  0  0  0  0  0  0  0  0  0  0  0
    0.4215    2.7784    1.1819 O   0  0  0  0  0  0  0  0  0  0  0  0
    2.4856   -0.9185   -1.5636 H   0  0  0  0  0  0  0  0  0  0  0  0
    3.5824    0.2527   -0.8220 H   0  0  0  0  0  0  0  0  0  0  0  0
    2.8352   -0.9745    0.2086 H   0  0  0  0  0  0  0  0  0  0  0  0
    0.7861   -2.0438   -0.4234 H   0  0  0  0  0  0  0  0  0  0  0  0
   -1.4810   -2.7820    0.1091 H   0  0  0  0  0  0  0  0  0  0  0  0
   -3.2476   -1.1487    0.7081 H   0  0  0  0  0  0  0  0  0  0  0  0
   -2.7133    1.2767    0.7849 H   0  0  0  0  0  0  0  0  0  0  0  0
  1  2  1  0
  2  3  1  0
  3  4  2  0
  4  5  1  0
  5  6  2  0
  6  7  1  0
  7  8  2  0
  8  9  1  0
  9 10  2  0
  9 11  1  0
  8  3  1  0
  1 12  1  0
  1 13  1  0
  1 14  1  0
  4 15  1  0
  5 16  1  0
  6 17  1  0
  7 18  1  0
M  CHG  2   9   1  11  -1
M  END
$$$$
