
     RDKit          3D

 14 14  0  0  0  0  0  0  0  0999 V2000
    2.7320   -0.7117   -1.2298 O   0  0  0  0  0  0  0  0  0  0  0  0
    2.2630   -0.4940   -0.1066 N   0  0  0  0  0  0  0  0  0  0  0  0
    2.8787   -0.5132    0.9656 O   0  0  0  0  0  0  0  0  0  0  0  0
    0.8599   -0.1877   -0.0405 C   0  0  0  0  0  0  0  0  0  0  0  0
   -0.0509   -1.2408    0.1156 C   0  0  0  0  0  0  0  0  0  0  0  0
    0.4802   -2.8877    0.2290 Cl  0  0  0  0  0  0  0  0  0  0  0  0
   -1.4141   -0.9278    0.1784 C   0  0  0  0  0  0  0  0  0  0  0  0
   -2.6381   -2.1336    0.3692 Cl  0  0  0  0  0  0  0  0  0  0  0  0
   -1.8393    0.4015    0.0866 C   0  0  0  0  0  0  0  0  0  0  0  0
   -0.9099    1.4351   -0.0690 C   0  0  0  0  0  0  0  0  0  0  0  0
   -1.5333    3.0442   -0.1728 Cl  0  0  0  0  0  0  0  0  0  0  0  0
    0.4596    1.1516   -0.1348 C   0  0  0  0  0  0  0  0  0  0  0  0
    1.6149    2.4304   -0.3277 Cl  0  0  0  0  0  0  0  0  0  0  0  0
   -2.9027    0.6337    0.1367 H   0  0  0  0  0  0  0  0  0  0  0  0
  1  2  2  0
  2  3  1  0
  2  4  1  0
  4  5  2  0
  5  6  1  0
  5  7  1  0
  7  8  1  0
  7  9  2  0
  9 10  1  0
 10 11  1  0
 10 12  2  0
 12 13  1  0
 12  4  1  0
  9 14  1  0
M  CHG  2   2   1   3  -1
M  END
$$$$
