
     RDKit          3D

 14 14  0  0  0  0  0  0  0  0999 V2000
    2.8796    0.6039    0.8659 O   0  0  0  0  0  0  0  0  0  0  0  0
    2.2925    0.1165   -0.1084 N   0  0  0  0  0  0  0  0  0  0  0  0
    2.8300   -0.3575   -1.1180 O   0  0  0  0  0  0  0  0  0  0  0  0
    0.8532    0.0410   -0.0413 C   0  0  0  0  0  0  0  0  0  0  0  0
    0.2729   -1.2258    0.1082 C   0  0  0  0  0  0  0  0  0  0  0  0
   -1.1151   -1.3285    0.1848 C   0  0  0  0  0  0  0  0  0  0  0  0
   -1.9039   -0.1785    0.1097 C   0  0  0  0  0  0  0  0  0  0  0  0
   -1.3097    1.0791   -0.0469 C   0  0  0  0  0  0  0  0  0  0  0  0
    0.0806    1.1983   -0.1256 C   0  0  0  0  0  0  0  0  0  0  0  0
    0.7460    2.7731   -0.3541 Cl  0  0  0  0  0  0  0  0  0  0  0  0
    0.8890   -2.1206    0.1651 H   0  0  0  0  0  0  0  0  0  0  0  0
   -1.5850   -2.3030    0.3025 H   0  0  0  0  0  0  0  0  0  0  0  0
   -2.9878   -0.2603    0.1690 H   0  0  0  0  0  0  0  0  0  0  0  0
   -1.9422    1.9623   -0.1108 H   0  0  0  0  0  0  0  0  0  0  0  0
  1  2  2  0
  2  3  1  0
  2  4  1  0
  4  5  2  0
  5  6  1  0
  6  7  2  0
  7  8  1  0
  8  9  2  0
  9 10  1  0
  9  4  1  0
  5 11  1  0
  6 12  1  0
  7 13  1  0
  8 14  1  0
M  CHG  2   2   1   3  -1
M  END
$$$$
