
     RDKit          3D

 29 30  0  0  0  0  0  0  0  0999 V2000
    5.5790   -1.3579   -0.6976 O   0  0  0  0  0  0  0  0  0  0  0  0
    4.9429   -0.8662    0.2443 N   0  0  0  0  0  0  0  0  0  0  0  0
    5.3678   -0.7534    1.4018 O   0  0  0  0  0  0  0  0  0  0  0  0
    3.5853   -0.3781   -0.0315 C   0  0  0  0  0  0  0  0  0  0  0  0
    3.0771   -0.4384   -1.3358 C   0  0  0  0  0  0  0  0  0  0  0  0
    1.7824    0.0259   -1.6019 C   0  0  0  0  0  0  0  0  0  0  0  0
    0.9762    0.5626   -0.5840 C   0  0  0  0  0  0  0  0  0  0  0  0
   -0.3457    0.9279   -0.9015 N   0  0  0  0  0  0  0  0  0  0  0  0
   -1.5498    0.3500   -0.4368 C   0  0  0  0  0  0  0  0  0  0  0  0
   -1.5921   -0.7861    0.3803 C   0  0  0  0  0  0  0  0  0  0  0  0
   -2.8117   -1.2863    0.8461 C   0  0  0  0  0  0  0  0  0  0  0  0
   -3.9954   -0.6437    0.5112 C   0  0  0  0  0  0  0  0  0  0  0  0
   -5.1599   -1.1649    0.9894 O   0  0  0  0  0  0  0  0  0  0  0  0
   -3.9815    0.4957   -0.2824 C   0  0  0  0  0  0  0  0  0  0  0  0
   -2.7597    0.9907   -0.7485 C   0  0  0  0  0  0  0  0  0  0  0  0
    1.5199    0.6097    0.7127 C   0  0  0  0  0  0  0  0  0  0  0  0
    0.7760    1.2185    1.8013 N   0  0  0  0  0  0  0  0  0  0  0  0
    0.5615    0.5060    2.7922 O   0  0  0  0  0  0  0  0  0  0  0  0
    0.4804    2.4158    1.6915 O   0  0  0  0  0  0  0  0  0  0  0  0
    2.8122    0.1475    1.0069 C   0  0  0  0  0  0  0  0  0  0  0  0
    3.6676   -0.8502   -2.1535 H   0  0  0  0  0  0  0  0  0  0  0  0
    1.3969   -0.0560   -2.6174 H   0  0  0  0  0  0  0  0  0  0  0  0
   -0.4568    1.2816   -1.8492 H   0  0  0  0  0  0  0  0  0  0  0  0
   -0.6866   -1.3168    0.6576 H   0  0  0  0  0  0  0  0  0  0  0  0
   -2.8338   -2.1723    1.4745 H   0  0  0  0  0  0  0  0  0  0  0  0
   -5.8925   -0.5844    0.7257 H   0  0  0  0  0  0  0  0  0  0  0  0
   -4.8988    1.0147   -0.5409 H   0  0  0  0  0  0  0  0  0  0  0  0
   -2.7577    1.8979   -1.3482 H   0  0  0  0  0  0  0  0  0  0  0  0
    3.1970    0.2102    2.0238 H   0  0  0  0  0  0  0  0  0  0  0  0
  1  2  2  0
  2  3  1  0
  2  4  1  0
  4  5  1  0
  5  6  2  0
  6  7  1  0
  7  8  1  0
  8  9  1  0
  9 10  1  0
 10 11  2  0
 11 12  1  0
 12 13  1  0
 12 14  2  0
 14 15  1  0
  7 16  2  0
 16 17  1  0
 17 18  2  0
 17 19  1  0
 16 20  1  0
 20  4  2  0
 15  9  2  0
  5 21  1  0
  6 22  1  0
  8 23  1  0
 10 24  1  0
 11 25  1  0
 13 26  1  0
 14 27  1  0
 15 28  1  0
 20 29  1  0
M  CHG  4   2   1   3  -1  17   1  19  -1
M  END
$$$$
