
     RDKit          3D

 17 17  0  0  0  0  0  0  0  0999 V2000
   -2.4570   -0.6343    0.1897 C   0  0  0  0  0  0  0  0  0  0  0  0
   -1.0782   -0.0711    0.0037 C   0  0  0  0  0  0  0  0  0  0  0  0
   -0.9031    1.2803   -0.3253 C   0  0  0  0  0  0  0  0  0  0  0  0
    0.3773    1.8203   -0.4698 C   0  0  0  0  0  0  0  0  0  0  0  0
    1.5018    1.0182   -0.2767 C   0  0  0  0  0  0  0  0  0  0  0  0
    1.3337   -0.3290    0.0667 C   0  0  0  0  0  0  0  0  0  0  0  0
    2.5133   -1.1768    0.2794 N   0  0  0  0  0  0  0  0  0  0  0  0
    3.6303   -0.6570    0.1423 O   0  0  0  0  0  0  0  0  0  0  0  0
    2.3248   -2.3636    0.5838 O   0  0  0  0  0  0  0  0  0  0  0  0
    0.0502   -0.8756    0.2128 C   0  0  0  0  0  0  0  0  0  0  0  0
   -3.1792   -0.1195   -0.4527 H   0  0  0  0  0  0  0  0  0  0  0  0
   -2.4841   -1.6959   -0.0776 H   0  0  0  0  0  0  0  0  0  0  0  0
   -2.7686   -0.5231    1.2328 H   0  0  0  0  0  0  0  0  0  0  0  0
   -1.7689    1.9240   -0.4729 H   0  0  0  0  0  0  0  0  0  0  0  0
    0.4963    2.8697   -0.7308 H   0  0  0  0  0  0  0  0  0  0  0  0
    2.4916    1.4546   -0.3925 H   0  0  0  0  0  0  0  0  0  0  0  0
   -0.0805   -1.9211    0.4870 H   0  0  0  0  0  0  0  0  0  0  0  0
  1  2  1  0
  2  3  2  0
  3  4  1  0
  4  5  2  0
  5  6  1  0
  6  7  1  0
  7  8  2  0
  7  9  1  0
  6 10  2  0
 10  2  1  0
  1 11  1  0
  1 12  1  0
  1 13  1  0
  3 14  1  0
  4 15  1  0
  5 16  1  0
 10 17  1  0
M  CHG  2   7   1   9  -1
M  END
$$$$
