
     RDKit          3D

 20 20  0  0  0  0  0  0  0  0999 V2000
   -2.4491   -0.2775   -0.4462 C   0  0  0  0  0  0  0  0  0  0  0  0
   -0.9716   -0.2173   -0.1648 C   0  0  0  0  0  0  0  0  0  0  0  0
   -0.2447   -1.3718    0.1601 C   0  0  0  0  0  0  0  0  0  0  0  0
   -0.8206   -2.6040    0.2868 O   0  0  0  0  0  0  0  0  0  0  0  0
    1.1354   -1.3383    0.3773 C   0  0  0  0  0  0  0  0  0  0  0  0
    1.8202   -0.1222    0.3021 C   0  0  0  0  0  0  0  0  0  0  0  0
    3.2684   -0.0865    0.5364 N   0  0  0  0  0  0  0  0  0  0  0  0
    3.8190    1.0230    0.5374 O   0  0  0  0  0  0  0  0  0  0  0  0
    3.8508   -1.1633    0.7208 O   0  0  0  0  0  0  0  0  0  0  0  0
    1.1330    1.0608    0.0226 C   0  0  0  0  0  0  0  0  0  0  0  0
   -0.2519    0.9974   -0.1950 C   0  0  0  0  0  0  0  0  0  0  0  0
   -0.9330    2.2615   -0.4443 N   0  0  0  0  0  0  0  0  0  0  0  0
   -0.4997    2.9583   -1.3703 O   0  0  0  0  0  0  0  0  0  0  0  0
   -1.8797    2.5500    0.2986 O   0  0  0  0  0  0  0  0  0  0  0  0
   -2.7632    0.5025   -1.1467 H   0  0  0  0  0  0  0  0  0  0  0  0
   -3.0139   -0.1746    0.4852 H   0  0  0  0  0  0  0  0  0  0  0  0
   -2.7232   -1.2225   -0.9265 H   0  0  0  0  0  0  0  0  0  0  0  0
   -1.7839   -2.5257    0.3793 H   0  0  0  0  0  0  0  0  0  0  0  0
    1.6548   -2.2667    0.6108 H   0  0  0  0  0  0  0  0  0  0  0  0
    1.6529    2.0170   -0.0234 H   0  0  0  0  0  0  0  0  0  0  0  0
  1  2  1  0
  2  3  1  0
  3  4  1  0
  3  5  2  0
  5  6  1  0
  6  7  1  0
  7  8  2  0
  7  9  1  0
  6 10  2  0
 10 11  1  0
 11 12  1  0
 12 13  2  0
 12 14  1  0
 11  2  2  0
  1 15  1  0
  1 16  1  0
  1 17  1  0
  4 18  1  0
  5 19  1  0
 10 20  1  0
M  CHG  4   7   1   9  -1  12   1  14  -1
M  END
$$$$
