
     RDKit          3D

 39 39  0  0  0  0  0  0  0  0999 V2000
   -1.7605   -2.2520    2.3720 C   0  0  0  0  0  0  0  0  0  0  0  0
   -1.5014   -2.3363    0.8749 C   0  0  0  0  0  0  0  0  0  0  0  0
   -1.8892   -1.0498    0.1426 C   0  0  0  0  0  0  0  0  0  0  0  0
   -0.9205    0.0474    0.3502 N   0  0  0  0  0  0  0  0  0  0  0  0
   -1.4927    1.4147    0.3102 C   0  0  0  0  0  0  0  0  0  0  0  0
   -1.9337    1.8312   -1.0932 C   0  0  0  0  0  0  0  0  0  0  0  0
   -2.6456    3.1755   -1.0730 C   0  0  0  0  0  0  0  0  0  0  0  0
    0.4327   -0.0724    0.0185 C   0  0  0  0  0  0  0  0  0  0  0  0
    0.9537   -0.6093   -1.1782 C   0  0  0  0  0  0  0  0  0  0  0  0
    0.0965   -1.0892   -2.2386 N   0  0  0  0  0  0  0  0  0  0  0  0
   -0.0881   -2.3130   -2.2968 O   0  0  0  0  0  0  0  0  0  0  0  0
   -0.3360   -0.2539   -3.0426 O   0  0  0  0  0  0  0  0  0  0  0  0
    2.3359   -0.6977   -1.4674 C   0  0  0  0  0  0  0  0  0  0  0  0
    3.2826   -0.2570   -0.5442 C   0  0  0  0  0  0  0  0  0  0  0  0
    4.7481   -0.3157   -0.8553 C   0  0  0  0  0  0  0  0  0  0  0  0
    2.8266    0.2830    0.6552 C   0  0  0  0  0  0  0  0  0  0  0  0
    1.4413    0.3563    0.9161 C   0  0  0  0  0  0  0  0  0  0  0  0
    1.0958    0.8438    2.2375 N   0  0  0  0  0  0  0  0  0  0  0  0
    1.0516    2.0733    2.3876 O   0  0  0  0  0  0  0  0  0  0  0  0
    0.9627    0.0007    3.1341 O   0  0  0  0  0  0  0  0  0  0  0  0
   -2.8245   -2.0928    2.5750 H   0  0  0  0  0  0  0  0  0  0  0  0
   -1.2024   -1.4337    2.8314 H   0  0  0  0  0  0  0  0  0  0  0  0
   -1.4610   -3.1847    2.8602 H   0  0  0  0  0  0  0  0  0  0  0  0
   -0.4534   -2.5999    0.6991 H   0  0  0  0  0  0  0  0  0  0  0  0
   -2.1048   -3.1595    0.4737 H   0  0  0  0  0  0  0  0  0  0  0  0
   -2.0356   -1.2473   -0.9218 H   0  0  0  0  0  0  0  0  0  0  0  0
   -2.8755   -0.7349    0.5085 H   0  0  0  0  0  0  0  0  0  0  0  0
   -2.3502    1.4494    0.9940 H   0  0  0  0  0  0  0  0  0  0  0  0
   -0.7830    2.1571    0.6867 H   0  0  0  0  0  0  0  0  0  0  0  0
   -2.6031    1.0815   -1.5288 H   0  0  0  0  0  0  0  0  0  0  0  0
   -1.0604    1.9090   -1.7489 H   0  0  0  0  0  0  0  0  0  0  0  0
   -1.9929    3.9593   -0.6755 H   0  0  0  0  0  0  0  0  0  0  0  0
   -3.5479    3.1323   -0.4547 H   0  0  0  0  0  0  0  0  0  0  0  0
   -2.9422    3.4623   -2.0868 H   0  0  0  0  0  0  0  0  0  0  0  0
    2.6638   -1.1123   -2.4212 H   0  0  0  0  0  0  0  0  0  0  0  0
    5.3370   -0.4398    0.0596 H   0  0  0  0  0  0  0  0  0  0  0  0
    5.0615    0.6057   -1.3556 H   0  0  0  0  0  0  0  0  0  0  0  0
    4.9754   -1.1669   -1.5056 H   0  0  0  0  0  0  0  0  0  0  0  0
    3.5390    0.6356    1.4009 H   0  0  0  0  0  0  0  0  0  0  0  0
  1  2  1  0
  2  3  1  0
  3  4  1  0
  4  5  1  0
  5  6  1  0
  6  7  1  0
  4  8  1  0
  8  9  1  0
  9 10  1  0
 10 11  2  0
 10 12  1  0
  9 13  2  0
 13 14  1  0
 14 15  1  0
 14 16  2  0
 16 17  1  0
 17 18  1  0
 18 19  2  0
 18 20  1  0
 17  8  2  0
  1 21  1  0
  1 22  1  0
  1 23  1  0
  2 24  1  0
  2 25  1  0
  3 26  1  0
  3 27  1  0
  5 28  1  0
  5 29  1  0
  6 30  1  0
  6 31  1  0
  7 32  1  0
  7 33  1  0
  7 34  1  0
 13 35  1  0
 15 36  1  0
 15 37  1  0
 15 38  1  0
 16 39  1  0
M  CHG  4  10   1  12  -1  18   1  20  -1
M  END
$$$$
