
     RDKit          3D

 16 15  0  0  0  0  0  0  0  0999 V2000
   -1.7097   -0.7715   -0.2948 C   0  0  0  0  0  0  0  0  0  0  0  0
   -1.0085    0.2381    0.6022 C   0  0  0  0  0  0  0  0  0  0  0  0
    0.0333    1.0920   -0.1298 C   0  0  0  0  0  0  0  0  0  0  0  0
    1.1295    0.3556   -0.7587 N   0  0  0  0  0  0  0  0  0  0  0  0
    2.0195   -0.2711    0.2069 C   0  0  0  0  0  0  0  0  0  0  0  0
   -2.1606   -0.2798   -1.1625 H   0  0  0  0  0  0  0  0  0  0  0  0
   -1.0175   -1.5398   -0.6520 H   0  0  0  0  0  0  0  0  0  0  0  0
   -2.5069   -1.2764    0.2603 H   0  0  0  0  0  0  0  0  0  0  0  0
   -1.7656    0.9102    1.0246 H   0  0  0  0  0  0  0  0  0  0  0  0
   -0.5524   -0.2830    1.4513 H   0  0  0  0  0  0  0  0  0  0  0  0
   -0.4752    1.6618   -0.9169 H   0  0  0  0  0  0  0  0  0  0  0  0
    0.4406    1.8396    0.5620 H   0  0  0  0  0  0  0  0  0  0  0  0
    0.7600   -0.3505   -1.3932 H   0  0  0  0  0  0  0  0  0  0  0  0
    1.5214   -1.0681    0.7668 H   0  0  0  0  0  0  0  0  0  0  0  0
    2.8662   -0.7201   -0.3219 H   0  0  0  0  0  0  0  0  0  0  0  0
    2.4259    0.4630    0.9100 H   0  0  0  0  0  0  0  0  0  0  0  0
  1  2  1  0
  2  3  1  0
  3  4  1  0
  4  5  1  0
  1  6  1  0
  1  7  1  0
  1  8  1  0
  2  9  1  0
  2 10  1  0
  3 11  1  0
  3 12  1  0
  4 13  1  0
  5 14  1  0
  5 15  1  0
  5 16  1  0
M  END
$$$$
