
     RDKit          3D

 22 21  0  0  0  0  0  0  0  0999 V2000
    1.9458   -0.8458   -0.4126 C   0  0  0  0  0  0  0  0  0  0  0  0
    0.8531   -0.3559    0.5278 C   0  0  0  0  0  0  0  0  0  0  0  0
   -0.2961    0.1267   -0.2579 N   0  0  0  0  0  0  0  0  0  0  0  0
   -0.5566    1.5590   -0.0329 C   0  0  0  0  0  0  0  0  0  0  0  0
    0.5407    2.4517   -0.6056 C   0  0  0  0  0  0  0  0  0  0  0  0
   -1.5150   -0.6567    0.0079 C   0  0  0  0  0  0  0  0  0  0  0  0
   -1.4215   -2.0848   -0.5221 C   0  0  0  0  0  0  0  0  0  0  0  0
    1.5928   -1.6715   -1.0392 H   0  0  0  0  0  0  0  0  0  0  0  0
    2.8036   -1.2063    0.1644 H   0  0  0  0  0  0  0  0  0  0  0  0
    2.2971   -0.0432   -1.0692 H   0  0  0  0  0  0  0  0  0  0  0  0
    1.2671    0.4240    1.1786 H   0  0  0  0  0  0  0  0  0  0  0  0
    0.5772   -1.1711    1.2079 H   0  0  0  0  0  0  0  0  0  0  0  0
   -0.6984    1.7721    1.0341 H   0  0  0  0  0  0  0  0  0  0  0  0
   -1.4863    1.8460   -0.5405 H   0  0  0  0  0  0  0  0  0  0  0  0
    0.6934    2.2510   -1.6714 H   0  0  0  0  0  0  0  0  0  0  0  0
    1.4956    2.3162   -0.0895 H   0  0  0  0  0  0  0  0  0  0  0  0
    0.2564    3.5041   -0.5011 H   0  0  0  0  0  0  0  0  0  0  0  0
   -2.3676   -0.1916   -0.5030 H   0  0  0  0  0  0  0  0  0  0  0  0
   -1.7530   -0.6661    1.0790 H   0  0  0  0  0  0  0  0  0  0  0  0
   -2.3815   -2.5946   -0.3888 H   0  0  0  0  0  0  0  0  0  0  0  0
   -0.6618   -2.6717    0.0024 H   0  0  0  0  0  0  0  0  0  0  0  0
   -1.1850   -2.0918   -1.5914 H   0  0  0  0  0  0  0  0  0  0  0  0
  1  2  1  0
  2  3  1  0
  3  4  1  0
  4  5  1  0
  3  6  1  0
  6  7  1  0
  1  8  1  0
  1  9  1  0
  1 10  1  0
  2 11  1  0
  2 12  1  0
  4 13  1  0
  4 14  1  0
  5 15  1  0
  5 16  1  0
  5 17  1  0
  6 18  1  0
  6 19  1  0
  7 20  1  0
  7 21  1  0
  7 22  1  0
M  END
$$$$
