
     RDKit          3D

 20 19  0  0  0  0  0  0  0  0999 V2000
    3.1651    0.2767    0.0989 C   0  0  0  0  0  0  0  0  0  0  0  0
    1.8723   -0.5156   -0.0123 C   0  0  0  0  0  0  0  0  0  0  0  0
    0.6492    0.4004    0.0235 C   0  0  0  0  0  0  0  0  0  0  0  0
   -0.6492   -0.4004   -0.0886 C   0  0  0  0  0  0  0  0  0  0  0  0
   -1.8723    0.5156   -0.0528 C   0  0  0  0  0  0  0  0  0  0  0  0
   -3.1651   -0.2767   -0.1640 C   0  0  0  0  0  0  0  0  0  0  0  0
    3.2626    0.9865   -0.7288 H   0  0  0  0  0  0  0  0  0  0  0  0
    4.0266   -0.3979    0.0712 H   0  0  0  0  0  0  0  0  0  0  0  0
    3.2023    0.8369    1.0386 H   0  0  0  0  0  0  0  0  0  0  0  0
    1.8811   -1.0889   -0.9466 H   0  0  0  0  0  0  0  0  0  0  0  0
    1.8211   -1.2376    0.8110 H   0  0  0  0  0  0  0  0  0  0  0  0
    0.7073    1.1232   -0.7995 H   0  0  0  0  0  0  0  0  0  0  0  0
    0.6474    0.9745    0.9581 H   0  0  0  0  0  0  0  0  0  0  0  0
   -0.7073   -1.1232    0.7344 H   0  0  0  0  0  0  0  0  0  0  0  0
   -0.6474   -0.9745   -1.0232 H   0  0  0  0  0  0  0  0  0  0  0  0
   -1.8811    1.0889    0.8815 H   0  0  0  0  0  0  0  0  0  0  0  0
   -1.8211    1.2376   -0.8761 H   0  0  0  0  0  0  0  0  0  0  0  0
   -3.2626   -0.9865    0.6637 H   0  0  0  0  0  0  0  0  0  0  0  0
   -4.0266    0.3979   -0.1363 H   0  0  0  0  0  0  0  0  0  0  0  0
   -3.2023   -0.8369   -1.1037 H   0  0  0  0  0  0  0  0  0  0  0  0
  1  2  1  0
  2  3  1  0
  3  4  1  0
  4  5  1  0
  5  6  1  0
  1  7  1  0
  1  8  1  0
  1  9  1  0
  2 10  1  0
  2 11  1  0
  3 12  1  0
  3 13  1  0
  4 14  1  0
  4 15  1  0
  5 16  1  0
  5 17  1  0
  6 18  1  0
  6 19  1  0
  6 20  1  0
M  END
$$$$
