
     RDKit          3D

 14 14  0  0  0  0  0  0  0  0999 V2000
    2.9209   -1.0702   -0.2587 O   0  0  0  0  0  0  0  0  0  0  0  0
    2.3421    0.0168   -0.1173 N   0  0  0  0  0  0  0  0  0  0  0  0
    2.9165    1.1120   -0.0338 O   0  0  0  0  0  0  0  0  0  0  0  0
    0.8760    0.0063   -0.0439 C   0  0  0  0  0  0  0  0  0  0  0  0
    0.1802    1.2124    0.1157 C   0  0  0  0  0  0  0  0  0  0  0  0
   -1.2139    1.1961    0.1848 C   0  0  0  0  0  0  0  0  0  0  0  0
   -1.9052   -0.0137    0.0954 C   0  0  0  0  0  0  0  0  0  0  0  0
   -1.2091   -1.2134   -0.0635 C   0  0  0  0  0  0  0  0  0  0  0  0
    0.1851   -1.2098   -0.1340 C   0  0  0  0  0  0  0  0  0  0  0  0
    0.7040    2.1633    0.1869 H   0  0  0  0  0  0  0  0  0  0  0  0
   -1.7631    2.1269    0.3086 H   0  0  0  0  0  0  0  0  0  0  0  0
   -2.9919   -0.0215    0.1499 H   0  0  0  0  0  0  0  0  0  0  0  0
   -1.7545   -2.1521   -0.1324 H   0  0  0  0  0  0  0  0  0  0  0  0
    0.7127   -2.1532   -0.2579 H   0  0  0  0  0  0  0  0  0  0  0  0
  1  2  2  0
  2  3  1  0
  2  4  1  0
  4  5  2  0
  5  6  1  0
  6  7  2  0
  7  8  1  0
  8  9  2  0
  9  4  1  0
  5 10  1  0
  6 11  1  0
  7 12  1  0
  8 13  1  0
  9 14  1  0
M  CHG  2   2   1   3  -1
M  END
$$$$
