
     RDKit          3D

 20 20  0  0  0  0  0  0  0  0999 V2000
    2.2177    1.7129    0.7615 C   0  0  0  0  0  0  0  0  0  0  0  0
    2.0139    0.4057    0.2392 O   0  0  0  0  0  0  0  0  0  0  0  0
    0.7138    0.0100    0.0293 C   0  0  0  0  0  0  0  0  0  0  0  0
   -0.4148    0.7035    0.4736 C   0  0  0  0  0  0  0  0  0  0  0  0
   -1.6913    0.1938    0.1930 C   0  0  0  0  0  0  0  0  0  0  0  0
   -2.8795    0.9226    0.6554 N   0  0  0  0  0  0  0  0  0  0  0  0
   -2.7017    1.9853    1.2682 O   0  0  0  0  0  0  0  0  0  0  0  0
   -3.9903    0.4321    0.4082 O   0  0  0  0  0  0  0  0  0  0  0  0
   -1.8489   -0.9938   -0.5306 C   0  0  0  0  0  0  0  0  0  0  0  0
   -0.7173   -1.6836   -0.9672 C   0  0  0  0  0  0  0  0  0  0  0  0
    0.5644   -1.2148   -0.6586 C   0  0  0  0  0  0  0  0  0  0  0  0
    1.6850   -1.8571   -1.2178 N   0  0  0  0  0  0  0  0  0  0  0  0
    1.7495    2.4729    0.1270 H   0  0  0  0  0  0  0  0  0  0  0  0
    1.8590    1.7818    1.7935 H   0  0  0  0  0  0  0  0  0  0  0  0
    3.2950    1.9045    0.7707 H   0  0  0  0  0  0  0  0  0  0  0  0
   -0.3178    1.6295    1.0310 H   0  0  0  0  0  0  0  0  0  0  0  0
   -2.8344   -1.3861   -0.7724 H   0  0  0  0  0  0  0  0  0  0  0  0
   -0.8394   -2.5881   -1.5583 H   0  0  0  0  0  0  0  0  0  0  0  0
    2.5428   -1.5673   -0.7491 H   0  0  0  0  0  0  0  0  0  0  0  0
    1.5943   -2.8637   -1.2966 H   0  0  0  0  0  0  0  0  0  0  0  0
  1  2  1  0
  2  3  1  0
  3  4  1  0
  4  5  2  0
  5  6  1  0
  6  7  2  0
  6  8  1  0
  5  9  1  0
  9 10  2  0
 10 11  1  0
 11 12  1  0
 11  3  2  0
  1 13  1  0
  1 14  1  0
  1 15  1  0
  4 16  1  0
  9 17  1  0
 10 18  1  0
 12 19  1  0
 12 20  1  0
M  CHG  2   6   1   8  -1
M  END
$$$$
