
     RDKit          3D

 28 29  0  0  0  0  0  0  0  0999 V2000
   -6.0711    0.1629    1.1207 O   0  0  0  0  0  0  0  0  0  0  0  0
   -5.0055   -0.0324    1.7223 N   0  0  0  0  0  0  0  0  0  0  0  0
   -4.9024   -0.1412    2.9525 O   0  0  0  0  0  0  0  0  0  0  0  0
   -3.7795   -0.1457    0.9219 C   0  0  0  0  0  0  0  0  0  0  0  0
   -3.8466   -0.0306   -0.4720 C   0  0  0  0  0  0  0  0  0  0  0  0
   -2.6754   -0.1406   -1.2257 C   0  0  0  0  0  0  0  0  0  0  0  0
   -1.4441   -0.3542   -0.5967 C   0  0  0  0  0  0  0  0  0  0  0  0
   -0.3608   -0.4583   -1.4442 O   0  0  0  0  0  0  0  0  0  0  0  0
    0.8831   -0.1861   -0.9278 C   0  0  0  0  0  0  0  0  0  0  0  0
    1.7335   -1.2708   -0.6993 C   0  0  0  0  0  0  0  0  0  0  0  0
    3.0227   -1.0549   -0.2082 C   0  0  0  0  0  0  0  0  0  0  0  0
    3.4790    0.2481    0.0483 C   0  0  0  0  0  0  0  0  0  0  0  0
    4.8811    0.4877    0.5557 C   0  0  0  0  0  0  0  0  0  0  0  0
    5.3698   -0.5547    1.2828 F   0  0  0  0  0  0  0  0  0  0  0  0
    4.9728    1.5801    1.3629 F   0  0  0  0  0  0  0  0  0  0  0  0
    5.7676    0.6903   -0.4559 F   0  0  0  0  0  0  0  0  0  0  0  0
    2.6265    1.3332   -0.2200 C   0  0  0  0  0  0  0  0  0  0  0  0
    1.3359    1.1194   -0.7122 C   0  0  0  0  0  0  0  0  0  0  0  0
    0.3533    2.4949   -1.0569 Cl  0  0  0  0  0  0  0  0  0  0  0  0
   -1.3853   -0.4824    0.7954 C   0  0  0  0  0  0  0  0  0  0  0  0
   -2.5522   -0.3739    1.5591 C   0  0  0  0  0  0  0  0  0  0  0  0
   -4.7914    0.1438   -0.9827 H   0  0  0  0  0  0  0  0  0  0  0  0
   -2.7204   -0.0501   -2.3091 H   0  0  0  0  0  0  0  0  0  0  0  0
    1.3902   -2.2826   -0.9024 H   0  0  0  0  0  0  0  0  0  0  0  0
    3.6750   -1.9097   -0.0296 H   0  0  0  0  0  0  0  0  0  0  0  0
    2.9773    2.3507   -0.0500 H   0  0  0  0  0  0  0  0  0  0  0  0
   -0.4459   -0.6717    1.3073 H   0  0  0  0  0  0  0  0  0  0  0  0
   -2.4871   -0.4715    2.6411 H   0  0  0  0  0  0  0  0  0  0  0  0
  1  2  2  0
  2  3  1  0
  2  4  1  0
  4  5  1  0
  5  6  2  0
  6  7  1  0
  7  8  1  0
  8  9  1  0
  9 10  1  0
 10 11  2  0
 11 12  1  0
 12 13  1  0
 13 14  1  0
 13 15  1  0
 13 16  1  0
 12 17  2  0
 17 18  1  0
 18 19  1  0
  7 20  2  0
 20 21  1  0
 21  4  2  0
 18  9  2  0
  5 22  1  0
  6 23  1  0
 10 24  1  0
 11 25  1  0
 17 26  1  0
 20 27  1  0
 21 28  1  0
M  CHG  2   2   1   3  -1
M  END
$$$$
