
     RDKit          3D

 18 18  0  0  0  0  0  0  0  0999 V2000
    2.4028    0.6376    1.1356 C   0  0  0  0  0  0  0  0  0  0  0  0
    1.0185    0.3943    0.6093 C   0  0  0  0  0  0  0  0  0  0  0  0
   -0.0355    1.2519    0.9592 C   0  0  0  0  0  0  0  0  0  0  0  0
   -1.3238    1.0578    0.4451 C   0  0  0  0  0  0  0  0  0  0  0  0
   -1.5709    0.0041   -0.4326 C   0  0  0  0  0  0  0  0  0  0  0  0
   -2.8183   -0.1660   -0.9568 O   0  0  0  0  0  0  0  0  0  0  0  0
   -0.5217   -0.8444   -0.7830 C   0  0  0  0  0  0  0  0  0  0  0  0
   -0.7485   -1.9521   -1.6872 N   0  0  0  0  0  0  0  0  0  0  0  0
   -1.5162   -2.8498   -1.3134 O   0  0  0  0  0  0  0  0  0  0  0  0
   -0.1051   -1.9497   -2.7472 O   0  0  0  0  0  0  0  0  0  0  0  0
    0.7732   -0.6560   -0.2824 C   0  0  0  0  0  0  0  0  0  0  0  0
    2.9587   -0.3020    1.2211 H   0  0  0  0  0  0  0  0  0  0  0  0
    2.9451    1.3102    0.4642 H   0  0  0  0  0  0  0  0  0  0  0  0
    2.3673    1.0858    2.1341 H   0  0  0  0  0  0  0  0  0  0  0  0
    0.1431    2.0858    1.6367 H   0  0  0  0  0  0  0  0  0  0  0  0
   -2.1133    1.7457    0.7351 H   0  0  0  0  0  0  0  0  0  0  0  0
   -3.4348    0.4692   -0.5548 H   0  0  0  0  0  0  0  0  0  0  0  0
    1.5794   -1.3224   -0.5833 H   0  0  0  0  0  0  0  0  0  0  0  0
  1  2  1  0
  2  3  1  0
  3  4  2  0
  4  5  1  0
  5  6  1  0
  5  7  2  0
  7  8  1  0
  8  9  2  0
  8 10  1  0
  7 11  1  0
 11  2  2  0
  1 12  1  0
  1 13  1  0
  1 14  1  0
  3 15  1  0
  4 16  1  0
  6 17  1  0
 11 18  1  0
M  CHG  2   8   1  10  -1
M  END
$$$$
