
     RDKit          3D

 25 26  0  0  0  0  0  0  0  0999 V2000
    5.4883    0.3555   -0.7248 O   0  0  0  0  0  0  0  0  0  0  0  0
    4.6341    0.5007    0.1611 N   0  0  0  0  0  0  0  0  0  0  0  0
    4.8661    0.9404    1.2964 O   0  0  0  0  0  0  0  0  0  0  0  0
    3.2501    0.1260   -0.1557 C   0  0  0  0  0  0  0  0  0  0  0  0
    2.9372   -0.3649   -1.4290 C   0  0  0  0  0  0  0  0  0  0  0  0
    1.6178   -0.7191   -1.7214 C   0  0  0  0  0  0  0  0  0  0  0  0
    0.6139   -0.5769   -0.7571 C   0  0  0  0  0  0  0  0  0  0  0  0
   -0.6455   -0.9706   -1.1602 O   0  0  0  0  0  0  0  0  0  0  0  0
   -1.7271   -0.4422   -0.4949 C   0  0  0  0  0  0  0  0  0  0  0  0
   -2.1963    0.8461   -0.7855 C   0  0  0  0  0  0  0  0  0  0  0  0
   -1.4309    1.8493   -1.9644 Cl  0  0  0  0  0  0  0  0  0  0  0  0
   -3.3211    1.3488   -0.1286 C   0  0  0  0  0  0  0  0  0  0  0  0
   -3.9872    0.5552    0.8030 C   0  0  0  0  0  0  0  0  0  0  0  0
   -5.3730    1.1749    1.6120 Cl  0  0  0  0  0  0  0  0  0  0  0  0
   -3.5485   -0.7374    1.0806 C   0  0  0  0  0  0  0  0  0  0  0  0
   -2.4238   -1.2382    0.4236 C   0  0  0  0  0  0  0  0  0  0  0  0
   -1.9148   -2.8479    0.7850 Cl  0  0  0  0  0  0  0  0  0  0  0  0
    0.9349   -0.0992    0.5180 C   0  0  0  0  0  0  0  0  0  0  0  0
    2.2533    0.2577    0.8207 C   0  0  0  0  0  0  0  0  0  0  0  0
    3.6993   -0.4778   -2.1974 H   0  0  0  0  0  0  0  0  0  0  0  0
    1.3685   -1.1019   -2.7090 H   0  0  0  0  0  0  0  0  0  0  0  0
   -3.6819    2.3508   -0.3488 H   0  0  0  0  0  0  0  0  0  0  0  0
   -4.0823   -1.3529    1.8008 H   0  0  0  0  0  0  0  0  0  0  0  0
    0.1835   -0.0055    1.2964 H   0  0  0  0  0  0  0  0  0  0  0  0
    2.4852    0.6292    1.8172 H   0  0  0  0  0  0  0  0  0  0  0  0
  1  2  2  0
  2  3  1  0
  2  4  1  0
  4  5  1  0
  5  6  2  0
  6  7  1  0
  7  8  1  0
  8  9  1  0
  9 10  2  0
 10 11  1  0
 10 12  1  0
 12 13  2  0
 13 14  1  0
 13 15  1  0
 15 16  2  0
 16 17  1  0
  7 18  2  0
 18 19  1  0
 19  4  2  0
 16  9  1  0
  5 20  1  0
  6 21  1  0
 12 22  1  0
 15 23  1  0
 18 24  1  0
 19 25  1  0
M  CHG  2   2   1   3  -1
M  END
$$$$
