
     RDKit          3D

 40 41  0  0  0  0  0  0  0  0999 V2000
    0.3307   -2.7688   -1.8955 C   0  0  0  0  0  0  0  0  0  0  0  0
   -0.3861   -2.5657   -0.5694 C   0  0  0  0  0  0  0  0  0  0  0  0
   -0.4216   -1.1521   -0.1274 N   0  0  0  0  0  0  0  0  0  0  0  0
   -1.3285   -0.9112    1.0264 C   0  0  0  0  0  0  0  0  0  0  0  0
   -2.3360    0.1607    0.7085 C   0  0  0  0  0  0  0  0  0  0  0  0
   -3.4462   -0.1703   -0.0782 C   0  0  0  0  0  0  0  0  0  0  0  0
   -3.6051   -1.4310   -0.5085 F   0  0  0  0  0  0  0  0  0  0  0  0
   -4.4142    0.7704   -0.4209 C   0  0  0  0  0  0  0  0  0  0  0  0
   -4.2887    2.0813    0.0258 C   0  0  0  0  0  0  0  0  0  0  0  0
   -3.1949    2.4378    0.8141 C   0  0  0  0  0  0  0  0  0  0  0  0
   -2.2243    1.4860    1.1529 C   0  0  0  0  0  0  0  0  0  0  0  0
   -0.8948    2.0209    2.1215 Cl  0  0  0  0  0  0  0  0  0  0  0  0
    0.7859   -0.4362   -0.0802 C   0  0  0  0  0  0  0  0  0  0  0  0
    0.9578    0.7231   -0.8712 C   0  0  0  0  0  0  0  0  0  0  0  0
   -0.0749    1.1451   -1.8049 N   0  0  0  0  0  0  0  0  0  0  0  0
   -0.6098    2.2408   -1.5838 O   0  0  0  0  0  0  0  0  0  0  0  0
   -0.2718    0.4358   -2.7995 O   0  0  0  0  0  0  0  0  0  0  0  0
    2.1203    1.5224   -0.8443 C   0  0  0  0  0  0  0  0  0  0  0  0
    3.1916    1.1812   -0.0129 C   0  0  0  0  0  0  0  0  0  0  0  0
    4.4534    2.0125    0.0091 C   0  0  0  0  0  0  0  0  0  0  0  0
    4.2257    3.3273   -0.2516 F   0  0  0  0  0  0  0  0  0  0  0  0
    5.3560    1.5914   -0.9156 F   0  0  0  0  0  0  0  0  0  0  0  0
    5.0906    1.9696    1.2099 F   0  0  0  0  0  0  0  0  0  0  0  0
    3.0802    0.0219    0.7627 C   0  0  0  0  0  0  0  0  0  0  0  0
    1.9014   -0.7541    0.7236 C   0  0  0  0  0  0  0  0  0  0  0  0
    1.9132   -1.9348    1.5621 N   0  0  0  0  0  0  0  0  0  0  0  0
    2.5816   -2.8953    1.1579 O   0  0  0  0  0  0  0  0  0  0  0  0
    1.2924   -1.8817    2.6307 O   0  0  0  0  0  0  0  0  0  0  0  0
    0.2941   -3.8253   -2.1806 H   0  0  0  0  0  0  0  0  0  0  0  0
   -0.1468   -2.1936   -2.6936 H   0  0  0  0  0  0  0  0  0  0  0  0
    1.3837   -2.4766   -1.8439 H   0  0  0  0  0  0  0  0  0  0  0  0
    0.0513   -3.2093    0.1999 H   0  0  0  0  0  0  0  0  0  0  0  0
   -1.4189   -2.9108   -0.7036 H   0  0  0  0  0  0  0  0  0  0  0  0
   -1.8772   -1.8293    1.2785 H   0  0  0  0  0  0  0  0  0  0  0  0
   -0.7783   -0.6734    1.9412 H   0  0  0  0  0  0  0  0  0  0  0  0
   -5.2567    0.4723   -1.0376 H   0  0  0  0  0  0  0  0  0  0  0  0
   -5.0342    2.8252   -0.2431 H   0  0  0  0  0  0  0  0  0  0  0  0
   -3.0961    3.4668    1.1528 H   0  0  0  0  0  0  0  0  0  0  0  0
    2.1849    2.4088   -1.4781 H   0  0  0  0  0  0  0  0  0  0  0  0
    3.9103   -0.2817    1.4035 H   0  0  0  0  0  0  0  0  0  0  0  0
  1  2  1  0
  2  3  1  0
  3  4  1  0
  4  5  1  0
  5  6  2  0
  6  7  1  0
  6  8  1  0
  8  9  2  0
  9 10  1  0
 10 11  2  0
 11 12  1  0
  3 13  1  0
 13 14  1  0
 14 15  1  0
 15 16  2  0
 15 17  1  0
 14 18  2  0
 18 19  1  0
 19 20  1  0
 20 21  1  0
 20 22  1  0
 20 23  1  0
 19 24  2  0
 24 25  1  0
 25 26  1  0
 26 27  2  0
 26 28  1  0
 11  5  1  0
 25 13  2  0
  1 29  1  0
  1 30  1  0
  1 31  1  0
  2 32  1  0
  2 33  1  0
  4 34  1  0
  4 35  1  0
  8 36  1  0
  9 37  1  0
 10 38  1  0
 18 39  1  0
 24 40  1  0
M  CHG  4  15   1  17  -1  26   1  28  -1
M  END
$$$$
