
     RDKit          3D

 18 18  0  0  0  0  0  0  0  0999 V2000
    2.9269   -0.1839   -0.7251 N   0  0  0  0  0  0  0  0  0  0  0  0
    1.5709    0.0521   -0.4767 C   0  0  0  0  0  0  0  0  0  0  0  0
    1.1068    1.3586   -0.3205 C   0  0  0  0  0  0  0  0  0  0  0  0
   -0.2099    1.6011    0.0720 C   0  0  0  0  0  0  0  0  0  0  0  0
   -1.0671    0.5207    0.3351 C   0  0  0  0  0  0  0  0  0  0  0  0
   -2.4380    0.8230    0.7505 N   0  0  0  0  0  0  0  0  0  0  0  0
   -2.6345    1.8907    1.3501 O   0  0  0  0  0  0  0  0  0  0  0  0
   -3.3279    0.0085    0.4554 O   0  0  0  0  0  0  0  0  0  0  0  0
   -0.6309   -0.8099    0.1937 C   0  0  0  0  0  0  0  0  0  0  0  0
   -1.3806   -1.9286    0.6039 N   0  0  0  0  0  0  0  0  0  0  0  0
    0.7173   -1.0115   -0.1505 C   0  0  0  0  0  0  0  0  0  0  0  0
    3.1300   -1.1011   -1.1106 H   0  0  0  0  0  0  0  0  0  0  0  0
    3.3973    0.5598   -1.2317 H   0  0  0  0  0  0  0  0  0  0  0  0
    1.7736    2.2011   -0.4882 H   0  0  0  0  0  0  0  0  0  0  0  0
   -0.5475    2.6290    0.1867 H   0  0  0  0  0  0  0  0  0  0  0  0
   -2.3929   -1.7819    0.5528 H   0  0  0  0  0  0  0  0  0  0  0  0
   -1.1077   -2.8034    0.1655 H   0  0  0  0  0  0  0  0  0  0  0  0
    1.1142   -2.0244   -0.1624 H   0  0  0  0  0  0  0  0  0  0  0  0
  1  2  1  0
  2  3  1  0
  3  4  2  0
  4  5  1  0
  5  6  1  0
  6  7  2  0
  6  8  1  0
  5  9  2  0
  9 10  1  0
  9 11  1  0
 11  2  2  0
  1 12  1  0
  1 13  1  0
  3 14  1  0
  4 15  1  0
 10 16  1  0
 10 17  1  0
 11 18  1  0
M  CHG  2   6   1   8  -1
M  END
$$$$
