
     RDKit          3D

 14 14  0  0  0  0  0  0  0  0999 V2000
    2.8304    1.3290   -0.0674 O   0  0  0  0  0  0  0  0  0  0  0  0
    2.3577    0.1840   -0.0840 N   0  0  0  0  0  0  0  0  0  0  0  0
    3.0310   -0.8545   -0.1408 O   0  0  0  0  0  0  0  0  0  0  0  0
    0.8971    0.0482   -0.0326 C   0  0  0  0  0  0  0  0  0  0  0  0
    0.3186   -1.2297   -0.0491 C   0  0  0  0  0  0  0  0  0  0  0  0
   -1.0706   -1.3566   -0.0003 C   0  0  0  0  0  0  0  0  0  0  0  0
   -1.8729   -0.2157    0.0646 C   0  0  0  0  0  0  0  0  0  0  0  0
   -1.2869    1.0514    0.0806 C   0  0  0  0  0  0  0  0  0  0  0  0
   -2.2875    2.4488    0.1607 Cl  0  0  0  0  0  0  0  0  0  0  0  0
    0.0978    1.1963    0.0324 C   0  0  0  0  0  0  0  0  0  0  0  0
    0.9316   -2.1280   -0.0995 H   0  0  0  0  0  0  0  0  0  0  0  0
   -1.5289   -2.3435   -0.0127 H   0  0  0  0  0  0  0  0  0  0  0  0
   -2.9550   -0.3204    0.1026 H   0  0  0  0  0  0  0  0  0  0  0  0
    0.5376    2.1909    0.0456 H   0  0  0  0  0  0  0  0  0  0  0  0
  1  2  2  0
  2  3  1  0
  2  4  1  0
  4  5  2  0
  5  6  1  0
  6  7  2  0
  7  8  1  0
  8  9  1  0
  8 10  2  0
 10  4  1  0
  5 11  1  0
  6 12  1  0
  7 13  1  0
 10 14  1  0
M  CHG  2   2   1   3  -1
M  END
$$$$
