
     RDKit          3D

 28 29  0  0  0  0  0  0  0  0999 V2000
   -3.4658   -1.5621   -0.3262 C   0  0  0  0  0  0  0  0  0  0  0  0
   -2.9322   -0.3200    0.2232 N   0  0  0  0  0  0  0  0  0  0  0  0
   -4.0191    0.6293    0.4402 C   0  0  0  0  0  0  0  0  0  0  0  0
   -1.5448    0.2715   -0.4680 P   0  0  0  0  0  0  0  0  0  0  0  0
   -1.6246    0.8923   -2.3124 S   0  0  0  0  0  0  0  0  0  0  0  0
   -1.0383    1.3929    0.5857 O   0  0  0  0  0  0  0  0  0  0  0  0
    0.2907    1.8508    0.4323 C   0  0  0  0  0  0  0  0  0  0  0  0
    1.2742    0.7168    0.3533 C   0  0  0  0  0  0  0  0  0  0  0  0
    2.6393    0.9609    0.5764 C   0  0  0  0  0  0  0  0  0  0  0  0
    3.5649   -0.0917    0.4944 C   0  0  0  0  0  0  0  0  0  0  0  0
    4.9897    0.1712    0.7374 N   0  0  0  0  0  0  0  0  0  0  0  0
    5.7745   -0.7841    0.6572 O   0  0  0  0  0  0  0  0  0  0  0  0
    5.3210    1.3338    1.0099 O   0  0  0  0  0  0  0  0  0  0  0  0
    3.1419   -1.3900    0.1854 C   0  0  0  0  0  0  0  0  0  0  0  0
    1.7873   -1.6297   -0.0471 C   0  0  0  0  0  0  0  0  0  0  0  0
    0.8698   -0.5806    0.0269 C   0  0  0  0  0  0  0  0  0  0  0  0
   -0.4394   -0.8878   -0.2097 O   0  0  0  0  0  0  0  0  0  0  0  0
   -2.6807   -2.3225   -0.3888 H   0  0  0  0  0  0  0  0  0  0  0  0
   -3.8779   -1.4169   -1.3302 H   0  0  0  0  0  0  0  0  0  0  0  0
   -4.2503   -1.9749    0.3176 H   0  0  0  0  0  0  0  0  0  0  0  0
   -4.4727    0.9481   -0.5041 H   0  0  0  0  0  0  0  0  0  0  0  0
   -3.6531    1.5214    0.9585 H   0  0  0  0  0  0  0  0  0  0  0  0
   -4.8005    0.1978    1.0753 H   0  0  0  0  0  0  0  0  0  0  0  0
    0.3644    2.4811   -0.4598 H   0  0  0  0  0  0  0  0  0  0  0  0
    0.5168    2.4728    1.3048 H   0  0  0  0  0  0  0  0  0  0  0  0
    2.9710    1.9706    0.8165 H   0  0  0  0  0  0  0  0  0  0  0  0
    3.8463   -2.2167    0.1200 H   0  0  0  0  0  0  0  0  0  0  0  0
    1.4478   -2.6339   -0.2912 H   0  0  0  0  0  0  0  0  0  0  0  0
  1  2  1  0
  2  3  1  0
  2  4  1  0
  4  5  2  0
  4  6  1  0
  6  7  1  0
  7  8  1  0
  8  9  1  0
  9 10  2  0
 10 11  1  0
 11 12  2  0
 11 13  1  0
 10 14  1  0
 14 15  2  0
 15 16  1  0
 16 17  1  0
 17  4  1  0
 16  8  2  0
  1 18  1  0
  1 19  1  0
  1 20  1  0
  3 21  1  0
  3 22  1  0
  3 23  1  0
  7 24  1  0
  7 25  1  0
  9 26  1  0
 14 27  1  0
 15 28  1  0
M  CHG  2  11   1  13  -1
M  END
$$$$
