
     RDKit          3D

 39 39  0  0  0  0  0  0  0  0999 V2000
    3.5896    1.2640    0.8679 C   0  0  0  0  0  0  0  0  0  0  0  0
    2.4584    1.1709   -0.1431 C   0  0  0  0  0  0  0  0  0  0  0  0
    1.8207   -0.2294   -0.2651 C   0  0  0  0  0  0  0  0  0  0  0  0
    2.8151   -1.3117   -0.7365 C   0  0  0  0  0  0  0  0  0  0  0  0
    3.4246   -2.1065    0.4116 C   0  0  0  0  0  0  0  0  0  0  0  0
    0.7301   -0.1766   -1.2687 N   0  0  0  0  0  0  0  0  0  0  0  0
   -0.5660    0.1303   -0.8091 C   0  0  0  0  0  0  0  0  0  0  0  0
   -1.1579    1.3967   -0.9851 C   0  0  0  0  0  0  0  0  0  0  0  0
   -0.4815    2.4479   -1.7501 N   0  0  0  0  0  0  0  0  0  0  0  0
    0.2400    2.1028   -2.6979 O   0  0  0  0  0  0  0  0  0  0  0  0
   -0.6737    3.6216   -1.4013 O   0  0  0  0  0  0  0  0  0  0  0  0
   -2.4149    1.7177   -0.4356 C   0  0  0  0  0  0  0  0  0  0  0  0
   -3.1417    0.7789    0.3118 C   0  0  0  0  0  0  0  0  0  0  0  0
   -4.4732    1.1888    0.8848 C   0  0  0  0  0  0  0  0  0  0  0  0
   -2.6173   -0.5175    0.4779 C   0  0  0  0  0  0  0  0  0  0  0  0
   -3.3705   -1.5677    1.2610 C   0  0  0  0  0  0  0  0  0  0  0  0
   -1.3353   -0.7998   -0.0710 C   0  0  0  0  0  0  0  0  0  0  0  0
   -0.8158   -2.1491    0.0845 N   0  0  0  0  0  0  0  0  0  0  0  0
   -0.9898   -2.9359   -0.8559 O   0  0  0  0  0  0  0  0  0  0  0  0
   -0.2958   -2.4252    1.1758 O   0  0  0  0  0  0  0  0  0  0  0  0
    3.8926    2.3085    0.9948 H   0  0  0  0  0  0  0  0  0  0  0  0
    3.2789    0.8821    1.8451 H   0  0  0  0  0  0  0  0  0  0  0  0
    4.4702    0.7086    0.5334 H   0  0  0  0  0  0  0  0  0  0  0  0
    2.8270    1.5053   -1.1211 H   0  0  0  0  0  0  0  0  0  0  0  0
    1.6864    1.8901    0.1558 H   0  0  0  0  0  0  0  0  0  0  0  0
    1.4199   -0.5096    0.7155 H   0  0  0  0  0  0  0  0  0  0  0  0
    3.6132   -0.8651   -1.3413 H   0  0  0  0  0  0  0  0  0  0  0  0
    2.3053   -2.0332   -1.3886 H   0  0  0  0  0  0  0  0  0  0  0  0
    3.9879   -1.4724    1.0995 H   0  0  0  0  0  0  0  0  0  0  0  0
    4.1101   -2.8647    0.0190 H   0  0  0  0  0  0  0  0  0  0  0  0
    2.6475   -2.6232    0.9835 H   0  0  0  0  0  0  0  0  0  0  0  0
    1.0022    0.3915   -2.0818 H   0  0  0  0  0  0  0  0  0  0  0  0
   -2.8331    2.7138   -0.5883 H   0  0  0  0  0  0  0  0  0  0  0  0
   -4.5144    0.9661    1.9559 H   0  0  0  0  0  0  0  0  0  0  0  0
   -5.2841    0.6672    0.3668 H   0  0  0  0  0  0  0  0  0  0  0  0
   -4.6443    2.2651    0.7751 H   0  0  0  0  0  0  0  0  0  0  0  0
   -2.9628   -1.6391    2.2743 H   0  0  0  0  0  0  0  0  0  0  0  0
   -4.4384   -1.3446    1.3359 H   0  0  0  0  0  0  0  0  0  0  0  0
   -3.3092   -2.5465    0.7750 H   0  0  0  0  0  0  0  0  0  0  0  0
  1  2  1  0
  2  3  1  0
  3  4  1  0
  4  5  1  0
  3  6  1  0
  6  7  1  0
  7  8  1  0
  8  9  1  0
  9 10  2  0
  9 11  1  0
  8 12  2  0
 12 13  1  0
 13 14  1  0
 13 15  2  0
 15 16  1  0
 15 17  1  0
 17 18  1  0
 18 19  2  0
 18 20  1  0
 17  7  2  0
  1 21  1  0
  1 22  1  0
  1 23  1  0
  2 24  1  0
  2 25  1  0
  3 26  1  0
  4 27  1  0
  4 28  1  0
  5 29  1  0
  5 30  1  0
  5 31  1  0
  6 32  1  0
 12 33  1  0
 14 34  1  0
 14 35  1  0
 14 36  1  0
 16 37  1  0
 16 38  1  0
 16 39  1  0
M  CHG  4   9   1  11  -1  18   1  20  -1
M  END
$$$$
