
     RDKit          3D

 34 34  0  0  0  0  0  0  0  0999 V2000
   -3.2061   -2.5157   -0.0880 C   0  0  0  0  0  0  0  0  0  0  0  0
   -1.7260   -2.3953   -0.3885 C   0  0  0  0  0  0  0  0  0  0  0  0
   -0.8178   -1.0930    0.4797 P   0  0  0  0  0  0  0  0  0  0  0  0
   -0.9833   -1.0296    2.4165 S   0  0  0  0  0  0  0  0  0  0  0  0
    0.6693   -1.3991   -0.0798 O   0  0  0  0  0  0  0  0  0  0  0  0
    1.7976   -0.6447    0.0943 C   0  0  0  0  0  0  0  0  0  0  0  0
    1.7843    0.6451    0.6280 C   0  0  0  0  0  0  0  0  0  0  0  0
    2.9779    1.3606    0.7727 C   0  0  0  0  0  0  0  0  0  0  0  0
    4.1894    0.7802    0.3762 C   0  0  0  0  0  0  0  0  0  0  0  0
    5.4408    1.5329    0.5254 N   0  0  0  0  0  0  0  0  0  0  0  0
    6.4923    0.9734    0.1854 O   0  0  0  0  0  0  0  0  0  0  0  0
    5.3698    2.6836    0.9787 O   0  0  0  0  0  0  0  0  0  0  0  0
    4.2165   -0.5087   -0.1655 C   0  0  0  0  0  0  0  0  0  0  0  0
    3.0185   -1.2125   -0.3046 C   0  0  0  0  0  0  0  0  0  0  0  0
    3.0823   -2.8025   -0.9809 Cl  0  0  0  0  0  0  0  0  0  0  0  0
   -1.1899    0.2491   -0.3501 O   0  0  0  0  0  0  0  0  0  0  0  0
   -2.4143    0.9381   -0.1375 C   0  0  0  0  0  0  0  0  0  0  0  0
   -3.0849    1.1293   -1.4908 C   0  0  0  0  0  0  0  0  0  0  0  0
   -2.1056    2.2837    0.5050 C   0  0  0  0  0  0  0  0  0  0  0  0
   -3.7511   -1.6220   -0.3968 H   0  0  0  0  0  0  0  0  0  0  0  0
   -3.6331   -3.3694   -0.6236 H   0  0  0  0  0  0  0  0  0  0  0  0
   -3.3808   -2.6642    0.9811 H   0  0  0  0  0  0  0  0  0  0  0  0
   -1.5849   -2.2539   -1.4660 H   0  0  0  0  0  0  0  0  0  0  0  0
   -1.2482   -3.3483   -0.1316 H   0  0  0  0  0  0  0  0  0  0  0  0
    0.8621    1.1258    0.9402 H   0  0  0  0  0  0  0  0  0  0  0  0
    2.9430    2.3638    1.1952 H   0  0  0  0  0  0  0  0  0  0  0  0
    5.1515   -0.9684   -0.4786 H   0  0  0  0  0  0  0  0  0  0  0  0
   -3.0743    0.3646    0.5197 H   0  0  0  0  0  0  0  0  0  0  0  0
   -2.4436    1.7025   -2.1697 H   0  0  0  0  0  0  0  0  0  0  0  0
   -4.0418    1.6504   -1.3900 H   0  0  0  0  0  0  0  0  0  0  0  0
   -3.2624    0.1629   -1.9739 H   0  0  0  0  0  0  0  0  0  0  0  0
   -3.0180    2.8665    0.6640 H   0  0  0  0  0  0  0  0  0  0  0  0
   -1.6098    2.1466    1.4712 H   0  0  0  0  0  0  0  0  0  0  0  0
   -1.4190    2.8683   -0.1175 H   0  0  0  0  0  0  0  0  0  0  0  0
  1  2  1  0
  2  3  1  0
  3  4  2  0
  3  5  1  0
  5  6  1  0
  6  7  1  0
  7  8  2  0
  8  9  1  0
  9 10  1  0
 10 11  2  0
 10 12  1  0
  9 13  2  0
 13 14  1  0
 14 15  1  0
  3 16  1  0
 16 17  1  0
 17 18  1  0
 17 19  1  0
 14  6  2  0
  1 20  1  0
  1 21  1  0
  1 22  1  0
  2 23  1  0
  2 24  1  0
  7 25  1  0
  8 26  1  0
 13 27  1  0
 17 28  1  0
 18 29  1  0
 18 30  1  0
 18 31  1  0
 19 32  1  0
 19 33  1  0
 19 34  1  0
M  CHG  2  10   1  12  -1
M  END
$$$$
