
     RDKit          3D

 18 18  0  0  0  0  0  0  0  0999 V2000
    2.7715   -1.2106   -0.2003 N   0  0  0  0  0  0  0  0  0  0  0  0
    2.3242    0.0795   -0.2513 C   0  0  0  0  0  0  0  0  0  0  0  0
    3.1052    1.0117   -0.3863 O   0  0  0  0  0  0  0  0  0  0  0  0
    0.8569    0.3073   -0.1728 C   0  0  0  0  0  0  0  0  0  0  0  0
    0.3466    1.5213   -0.6599 C   0  0  0  0  0  0  0  0  0  0  0  0
   -1.0259    1.7963   -0.6034 C   0  0  0  0  0  0  0  0  0  0  0  0
   -1.9065    0.8634   -0.0539 C   0  0  0  0  0  0  0  0  0  0  0  0
   -3.5818    1.2637    0.0086 Cl  0  0  0  0  0  0  0  0  0  0  0  0
   -1.3846   -0.3337    0.4347 C   0  0  0  0  0  0  0  0  0  0  0  0
   -2.2606   -1.3224    1.0124 N   0  0  0  0  0  0  0  0  0  0  0  0
   -2.2448   -1.4289    2.2446 O   0  0  0  0  0  0  0  0  0  0  0  0
   -2.9103   -2.0225    0.2265 O   0  0  0  0  0  0  0  0  0  0  0  0
   -0.0139   -0.6284    0.3916 C   0  0  0  0  0  0  0  0  0  0  0  0
    3.7634   -1.3367   -0.3666 H   0  0  0  0  0  0  0  0  0  0  0  0
    2.1785   -2.0105   -0.3660 H   0  0  0  0  0  0  0  0  0  0  0  0
    1.0225    2.2630   -1.0864 H   0  0  0  0  0  0  0  0  0  0  0  0
   -1.3942    2.7461   -0.9871 H   0  0  0  0  0  0  0  0  0  0  0  0
    0.3540   -1.5587    0.8156 H   0  0  0  0  0  0  0  0  0  0  0  0
  1  2  1  0
  2  3  2  0
  2  4  1  0
  4  5  1  0
  5  6  2  0
  6  7  1  0
  7  8  1  0
  7  9  2  0
  9 10  1  0
 10 11  2  0
 10 12  1  0
  9 13  1  0
 13  4  2  0
  1 14  1  0
  1 15  1  0
  5 16  1  0
  6 17  1  0
 13 18  1  0
M  CHG  2  10   1  12  -1
M  END
$$$$
