
     RDKit          3D

 15 15  0  0  0  0  0  0  0  0999 V2000
    3.4928    0.4428   -0.2631 O   0  0  0  0  0  0  0  0  0  0  0  0
    2.5978   -0.3880   -0.0654 N   0  0  0  0  0  0  0  0  0  0  0  0
    2.7811   -1.5947    0.1382 O   0  0  0  0  0  0  0  0  0  0  0  0
    1.2206    0.0871   -0.0698 C   0  0  0  0  0  0  0  0  0  0  0  0
    0.9560    1.4386   -0.2552 C   0  0  0  0  0  0  0  0  0  0  0  0
   -0.3027    1.9532   -0.2734 N   0  0  0  0  0  0  0  0  0  0  0  0
   -1.3354    1.0910   -0.0947 C   0  0  0  0  0  0  0  0  0  0  0  0
   -2.8691    1.8558   -0.1896 Cl  0  0  0  0  0  0  0  0  0  0  0  0
   -1.1385   -0.2626    0.1000 C   0  0  0  0  0  0  0  0  0  0  0  0
   -2.2582   -1.1393    0.2819 N   0  0  0  0  0  0  0  0  0  0  0  0
   -2.9040   -1.0193    1.3285 O   0  0  0  0  0  0  0  0  0  0  0  0
   -2.4523   -1.9797   -0.6041 O   0  0  0  0  0  0  0  0  0  0  0  0
    0.1541   -0.7966    0.1113 C   0  0  0  0  0  0  0  0  0  0  0  0
    1.7443    2.1754   -0.4008 H   0  0  0  0  0  0  0  0  0  0  0  0
    0.3133   -1.8635    0.2561 H   0  0  0  0  0  0  0  0  0  0  0  0
  1  2  2  0
  2  3  1  0
  2  4  1  0
  4  5  1  0
  5  6  2  0
  6  7  1  0
  7  8  1  0
  7  9  2  0
  9 10  1  0
 10 11  2  0
 10 12  1  0
  9 13  1  0
 13  4  2  0
  5 14  1  0
 13 15  1  0
M  CHG  4   2   1   3  -1  10   1  12  -1
M  END
$$$$
