
     RDKit          3D

 46 47  0  0  0  0  0  0  0  0999 V2000
    0.9452   -4.3328    2.4863 C   0  0  0  0  0  0  0  0  0  0  0  0
    1.9185   -3.2766    2.0008 C   0  0  0  0  0  0  0  0  0  0  0  0
    1.2084   -2.0383    1.8836 O   0  0  0  0  0  0  0  0  0  0  0  0
    1.9548   -1.0144    1.3991 C   0  0  0  0  0  0  0  0  0  0  0  0
    3.1348   -1.0712    1.0913 O   0  0  0  0  0  0  0  0  0  0  0  0
    1.1138    0.1996    1.2917 C   0  0  0  0  0  0  0  0  0  0  0  0
    1.5799    1.4184    1.6483 C   0  0  0  0  0  0  0  0  0  0  0  0
    2.9441    1.6765    2.2371 C   0  0  0  0  0  0  0  0  0  0  0  0
    0.7629    2.5307    1.5088 N   0  0  0  0  0  0  0  0  0  0  0  0
   -0.5619    2.4902    1.1025 C   0  0  0  0  0  0  0  0  0  0  0  0
   -1.3148    3.7928    1.1885 C   0  0  0  0  0  0  0  0  0  0  0  0
   -1.0992    1.3137    0.7096 C   0  0  0  0  0  0  0  0  0  0  0  0
   -2.5063    1.1533    0.2875 C   0  0  0  0  0  0  0  0  0  0  0  0
   -3.2403    0.2775    0.7191 O   0  0  0  0  0  0  0  0  0  0  0  0
   -2.8091    2.0477   -0.6858 O   0  0  0  0  0  0  0  0  0  0  0  0
   -4.1299    1.9076   -1.2088 C   0  0  0  0  0  0  0  0  0  0  0  0
   -0.2874    0.0236    0.7126 C   0  0  0  0  0  0  0  0  0  0  0  0
   -0.2279   -0.5852   -0.6947 C   0  0  0  0  0  0  0  0  0  0  0  0
   -0.8426   -1.8229   -0.9492 C   0  0  0  0  0  0  0  0  0  0  0  0
   -0.8012   -2.3946   -2.2228 C   0  0  0  0  0  0  0  0  0  0  0  0
   -0.1474   -1.7381   -3.2652 C   0  0  0  0  0  0  0  0  0  0  0  0
    0.4642   -0.5015   -3.0246 C   0  0  0  0  0  0  0  0  0  0  0  0
    1.1447    0.1973   -4.1223 N   0  0  0  0  0  0  0  0  0  0  0  0
    1.6063    1.3243   -3.8927 O   0  0  0  0  0  0  0  0  0  0  0  0
    1.2124   -0.3784   -5.2182 O   0  0  0  0  0  0  0  0  0  0  0  0
    0.4278    0.0776   -1.7485 C   0  0  0  0  0  0  0  0  0  0  0  0
    1.4418   -5.3010    2.5951 H   0  0  0  0  0  0  0  0  0  0  0  0
    0.1114   -4.4393    1.7846 H   0  0  0  0  0  0  0  0  0  0  0  0
    0.5145   -4.0455    3.4510 H   0  0  0  0  0  0  0  0  0  0  0  0
    2.3228   -3.5682    1.0248 H   0  0  0  0  0  0  0  0  0  0  0  0
    2.7360   -3.1648    2.7217 H   0  0  0  0  0  0  0  0  0  0  0  0
    3.3691    0.7991    2.7318 H   0  0  0  0  0  0  0  0  0  0  0  0
    3.6335    2.0127    1.4563 H   0  0  0  0  0  0  0  0  0  0  0  0
    2.8889    2.4594    3.0022 H   0  0  0  0  0  0  0  0  0  0  0  0
    1.1321    3.4257    1.8221 H   0  0  0  0  0  0  0  0  0  0  0  0
   -2.3994    3.6589    1.2269 H   0  0  0  0  0  0  0  0  0  0  0  0
   -1.0690    4.4271    0.3310 H   0  0  0  0  0  0  0  0  0  0  0  0
   -1.0397    4.3320    2.1021 H   0  0  0  0  0  0  0  0  0  0  0  0
   -4.8735    2.0617   -0.4205 H   0  0  0  0  0  0  0  0  0  0  0  0
   -4.2551    0.9246   -1.6737 H   0  0  0  0  0  0  0  0  0  0  0  0
   -4.2736    2.6739   -1.9753 H   0  0  0  0  0  0  0  0  0  0  0  0
   -0.8206   -0.6707    1.3782 H   0  0  0  0  0  0  0  0  0  0  0  0
   -1.3650   -2.3509   -0.1517 H   0  0  0  0  0  0  0  0  0  0  0  0
   -1.2828   -3.3536   -2.4016 H   0  0  0  0  0  0  0  0  0  0  0  0
   -0.1264   -2.1978   -4.2510 H   0  0  0  0  0  0  0  0  0  0  0  0
    0.9053    1.0400   -1.5651 H   0  0  0  0  0  0  0  0  0  0  0  0
  1  2  1  0
  2  3  1  0
  3  4  1  0
  4  5  2  0
  4  6  1  0
  6  7  2  0
  7  8  1  0
  7  9  1  0
  9 10  1  0
 10 11  1  0
 10 12  2  0
 12 13  1  0
 13 14  2  0
 13 15  1  0
 15 16  1  0
 12 17  1  0
 17 18  1  0
 18 19  2  0
 19 20  1  0
 20 21  2  0
 21 22  1  0
 22 23  1  0
 23 24  2  0
 23 25  1  0
 22 26  2  0
 17  6  1  0
 26 18  1  0
  1 27  1  0
  1 28  1  0
  1 29  1  0
  2 30  1  0
  2 31  1  0
  8 32  1  0
  8 33  1  0
  8 34  1  0
  9 35  1  0
 11 36  1  0
 11 37  1  0
 11 38  1  0
 16 39  1  0
 16 40  1  0
 16 41  1  0
 17 42  1  0
 19 43  1  0
 20 44  1  0
 21 45  1  0
 26 46  1  0
M  CHG  2  23   1  25  -1
M  END
$$$$
