
     RDKit          3D

 26 27  0  0  0  0  0  0  0  0999 V2000
   -1.5573   -2.3202    0.7089 C   0  0  0  0  0  0  0  0  0  0  0  0
   -1.9408   -0.9212    0.3763 C   0  0  0  0  0  0  0  0  0  0  0  0
   -3.2010   -0.5236    0.3328 N   0  0  0  0  0  0  0  0  0  0  0  0
   -3.1700    0.7519   -0.1654 C   0  0  0  0  0  0  0  0  0  0  0  0
   -4.3794    1.5186   -0.3665 N   0  0  0  0  0  0  0  0  0  0  0  0
   -5.4575    0.9894   -0.0676 O   0  0  0  0  0  0  0  0  0  0  0  0
   -4.2381    2.6608   -0.8292 O   0  0  0  0  0  0  0  0  0  0  0  0
   -1.8777    1.1452   -0.4218 C   0  0  0  0  0  0  0  0  0  0  0  0
   -1.0697    0.0964   -0.0244 N   0  0  0  0  0  0  0  0  0  0  0  0
    0.3594    0.1195   -0.0474 C   0  0  0  0  0  0  0  0  0  0  0  0
    1.0276    0.9961   -0.9214 C   0  0  0  0  0  0  0  0  0  0  0  0
    2.4266    1.0422   -0.9569 C   0  0  0  0  0  0  0  0  0  0  0  0
    3.1678    0.2164   -0.1063 C   0  0  0  0  0  0  0  0  0  0  0  0
    4.6352    0.2617   -0.1383 N   0  0  0  0  0  0  0  0  0  0  0  0
    5.1694    1.0503   -0.9306 O   0  0  0  0  0  0  0  0  0  0  0  0
    5.2507   -0.4924    0.6283 O   0  0  0  0  0  0  0  0  0  0  0  0
    2.5167   -0.6482    0.7800 C   0  0  0  0  0  0  0  0  0  0  0  0
    1.1166   -0.6916    0.8093 C   0  0  0  0  0  0  0  0  0  0  0  0
   -0.7474   -2.6847    0.0708 H   0  0  0  0  0  0  0  0  0  0  0  0
   -2.4125   -2.9868    0.5513 H   0  0  0  0  0  0  0  0  0  0  0  0
   -1.2703   -2.4043    1.7606 H   0  0  0  0  0  0  0  0  0  0  0  0
   -1.4932    2.0859   -0.7881 H   0  0  0  0  0  0  0  0  0  0  0  0
    0.4892    1.6363   -1.6174 H   0  0  0  0  0  0  0  0  0  0  0  0
    2.9167    1.7211   -1.6530 H   0  0  0  0  0  0  0  0  0  0  0  0
    3.0797   -1.2837    1.4621 H   0  0  0  0  0  0  0  0  0  0  0  0
    0.6596   -1.3353    1.5539 H   0  0  0  0  0  0  0  0  0  0  0  0
  1  2  1  0
  2  3  2  0
  3  4  1  0
  4  5  1  0
  5  6  2  0
  5  7  1  0
  4  8  2  0
  8  9  1  0
  9 10  1  0
 10 11  1  0
 11 12  2  0
 12 13  1  0
 13 14  1  0
 14 15  2  0
 14 16  1  0
 13 17  2  0
 17 18  1  0
  9  2  1  0
 18 10  2  0
  1 19  1  0
  1 20  1  0
  1 21  1  0
  8 22  1  0
 11 23  1  0
 12 24  1  0
 17 25  1  0
 18 26  1  0
M  CHG  4   5   1   7  -1  14   1  16  -1
M  END
$$$$
