
     RDKit          3D

 32 34  0  0  0  0  0  0  0  0999 V2000
   -2.3314    3.9589   -0.8154 O   0  0  0  0  0  0  0  0  0  0  0  0
   -1.9013    2.9146   -0.3236 C   0  0  0  0  0  0  0  0  0  0  0  0
   -0.9238    2.8986    0.8362 C   0  0  0  0  0  0  0  0  0  0  0  0
    0.3311    2.2671    0.4499 N   0  0  0  0  0  0  0  0  0  0  0  0
    0.3575    1.0056    0.1878 C   0  0  0  0  0  0  0  0  0  0  0  0
    1.6905    0.4402   -0.1828 C   0  0  0  0  0  0  0  0  0  0  0  0
    2.7488    0.6701    0.7098 C   0  0  0  0  0  0  0  0  0  0  0  0
    4.0185    0.1577    0.4422 C   0  0  0  0  0  0  0  0  0  0  0  0
    4.2412   -0.5760   -0.7212 C   0  0  0  0  0  0  0  0  0  0  0  0
    3.1977   -0.7882   -1.6247 C   0  0  0  0  0  0  0  0  0  0  0  0
    1.9217   -0.2770   -1.3645 C   0  0  0  0  0  0  0  0  0  0  0  0
    0.7044   -0.5365   -2.5625 Cl  0  0  0  0  0  0  0  0  0  0  0  0
   -0.8181    0.0836    0.2445 C   0  0  0  0  0  0  0  0  0  0  0  0
   -0.6120   -1.2168    0.7402 C   0  0  0  0  0  0  0  0  0  0  0  0
   -1.6297   -2.1731    0.6363 C   0  0  0  0  0  0  0  0  0  0  0  0
   -1.4049   -3.5338    1.1411 N   0  0  0  0  0  0  0  0  0  0  0  0
   -0.2968   -3.7872    1.6335 O   0  0  0  0  0  0  0  0  0  0  0  0
   -2.3369   -4.3440    1.0465 O   0  0  0  0  0  0  0  0  0  0  0  0
   -2.8491   -1.8487    0.0359 C   0  0  0  0  0  0  0  0  0  0  0  0
   -3.0584   -0.5498   -0.4341 C   0  0  0  0  0  0  0  0  0  0  0  0
   -2.0665    0.4340   -0.3001 C   0  0  0  0  0  0  0  0  0  0  0  0
   -2.4064    1.7162   -0.7535 N   0  0  0  0  0  0  0  0  0  0  0  0
   -1.3773    2.4213    1.7125 H   0  0  0  0  0  0  0  0  0  0  0  0
   -0.7166    3.9371    1.1168 H   0  0  0  0  0  0  0  0  0  0  0  0
    2.5843    1.2526    1.6144 H   0  0  0  0  0  0  0  0  0  0  0  0
    4.8348    0.3377    1.1382 H   0  0  0  0  0  0  0  0  0  0  0  0
    5.2321   -0.9716   -0.9330 H   0  0  0  0  0  0  0  0  0  0  0  0
    3.3914   -1.3450   -2.5389 H   0  0  0  0  0  0  0  0  0  0  0  0
    0.3442   -1.4854    1.1860 H   0  0  0  0  0  0  0  0  0  0  0  0
   -3.6448   -2.5848   -0.0672 H   0  0  0  0  0  0  0  0  0  0  0  0
   -4.0215   -0.3074   -0.8810 H   0  0  0  0  0  0  0  0  0  0  0  0
   -3.2027    1.8302   -1.3693 H   0  0  0  0  0  0  0  0  0  0  0  0
  1  2  2  0
  2  3  1  0
  3  4  1  0
  4  5  2  0
  5  6  1  0
  6  7  2  0
  7  8  1  0
  8  9  2  0
  9 10  1  0
 10 11  2  0
 11 12  1  0
  5 13  1  0
 13 14  1  0
 14 15  2  0
 15 16  1  0
 16 17  2  0
 16 18  1  0
 15 19  1  0
 19 20  2  0
 20 21  1  0
 21 22  1  0
 22  2  1  0
 11  6  1  0
 21 13  2  0
  3 23  1  0
  3 24  1  0
  7 25  1  0
  8 26  1  0
  9 27  1  0
 10 28  1  0
 14 29  1  0
 19 30  1  0
 20 31  1  0
 22 32  1  0
M  CHG  2  16   1  18  -1
M  END
$$$$
