
     RDKit          3D

 21 21  0  0  0  0  0  0  0  0999 V2000
   -2.0410    0.6076   -1.2415 C   0  0  0  0  0  0  0  0  0  0  0  0
   -0.7970    0.2366   -0.4795 C   0  0  0  0  0  0  0  0  0  0  0  0
   -0.4330   -1.1019   -0.2428 C   0  0  0  0  0  0  0  0  0  0  0  0
   -1.2891   -2.2014   -0.6704 N   0  0  0  0  0  0  0  0  0  0  0  0
   -2.4703   -2.1777   -0.3030 O   0  0  0  0  0  0  0  0  0  0  0  0
   -0.7638   -3.0861   -1.3588 O   0  0  0  0  0  0  0  0  0  0  0  0
    0.7517   -1.4552    0.4296 C   0  0  0  0  0  0  0  0  0  0  0  0
    1.6282   -0.4695    0.8788 C   0  0  0  0  0  0  0  0  0  0  0  0
    2.7375   -0.8132    1.6520 N   0  0  0  0  0  0  0  0  0  0  0  0
    1.2492    0.8650    0.7472 C   0  0  0  0  0  0  0  0  0  0  0  0
    0.0617    1.2048    0.0730 C   0  0  0  0  0  0  0  0  0  0  0  0
   -0.2541    2.6254   -0.0096 N   0  0  0  0  0  0  0  0  0  0  0  0
   -1.3631    2.9859    0.4039 O   0  0  0  0  0  0  0  0  0  0  0  0
    0.6202    3.3680   -0.4750 O   0  0  0  0  0  0  0  0  0  0  0  0
   -2.2763   -0.1336   -2.0121 H   0  0  0  0  0  0  0  0  0  0  0  0
   -2.8912    0.6965   -0.5585 H   0  0  0  0  0  0  0  0  0  0  0  0
   -1.9149    1.5517   -1.7814 H   0  0  0  0  0  0  0  0  0  0  0  0
    0.9844   -2.5046    0.6051 H   0  0  0  0  0  0  0  0  0  0  0  0
    3.4680   -0.1074    1.6963 H   0  0  0  0  0  0  0  0  0  0  0  0
    3.1182   -1.7389    1.4729 H   0  0  0  0  0  0  0  0  0  0  0  0
    1.8749    1.6480    1.1737 H   0  0  0  0  0  0  0  0  0  0  0  0
  1  2  1  0
  2  3  2  0
  3  4  1  0
  4  5  2  0
  4  6  1  0
  3  7  1  0
  7  8  2  0
  8  9  1  0
  8 10  1  0
 10 11  2  0
 11 12  1  0
 12 13  2  0
 12 14  1  0
 11  2  1  0
  1 15  1  0
  1 16  1  0
  1 17  1  0
  7 18  1  0
  9 19  1  0
  9 20  1  0
 10 21  1  0
M  CHG  4   4   1   6  -1  12   1  14  -1
M  END
$$$$
