
     RDKit          3D

 18 18  0  0  0  0  0  0  0  0999 V2000
   -3.1801   -0.0077    0.3335 C   0  0  0  0  0  0  0  0  0  0  0  0
   -2.1605    0.9549    0.0951 O   0  0  0  0  0  0  0  0  0  0  0  0
   -0.8742    0.4960    0.0346 C   0  0  0  0  0  0  0  0  0  0  0  0
   -0.4687   -0.8323    0.1854 C   0  0  0  0  0  0  0  0  0  0  0  0
    0.8877   -1.1694    0.1005 C   0  0  0  0  0  0  0  0  0  0  0  0
    1.8390   -0.1687   -0.1364 C   0  0  0  0  0  0  0  0  0  0  0  0
    3.2613   -0.5213   -0.2255 N   0  0  0  0  0  0  0  0  0  0  0  0
    3.5691   -1.7136   -0.0846 O   0  0  0  0  0  0  0  0  0  0  0  0
    4.0707    0.3932   -0.4361 O   0  0  0  0  0  0  0  0  0  0  0  0
    1.4422    1.1639   -0.2887 C   0  0  0  0  0  0  0  0  0  0  0  0
    0.0855    1.4867   -0.2018 C   0  0  0  0  0  0  0  0  0  0  0  0
   -3.0463   -0.4911    1.3069 H   0  0  0  0  0  0  0  0  0  0  0  0
   -4.1392    0.5189    0.3522 H   0  0  0  0  0  0  0  0  0  0  0  0
   -3.2213   -0.7467   -0.4734 H   0  0  0  0  0  0  0  0  0  0  0  0
   -1.1817   -1.6299    0.3698 H   0  0  0  0  0  0  0  0  0  0  0  0
    1.1817   -2.2103    0.2210 H   0  0  0  0  0  0  0  0  0  0  0  0
    2.1648    1.9557   -0.4732 H   0  0  0  0  0  0  0  0  0  0  0  0
   -0.2300    2.5217   -0.3193 H   0  0  0  0  0  0  0  0  0  0  0  0
  1  2  1  0
  2  3  1  0
  3  4  1  0
  4  5  2  0
  5  6  1  0
  6  7  1  0
  7  8  2  0
  7  9  1  0
  6 10  2  0
 10 11  1  0
 11  3  2  0
  1 12  1  0
  1 13  1  0
  1 14  1  0
  4 15  1  0
  5 16  1  0
 10 17  1  0
 11 18  1  0
M  CHG  2   7   1   9  -1
M  END
$$$$
