
     RDKit          3D

 41 43  0  0  0  0  0  0  0  0999 V2000
    8.7961    1.2211    1.1272 O   0  0  0  0  0  0  0  0  0  0  0  0
    8.3093    0.5526    0.2060 N   0  0  0  0  0  0  0  0  0  0  0  0
    8.9652   -0.0838   -0.6291 O   0  0  0  0  0  0  0  0  0  0  0  0
    6.8459    0.5116    0.0955 C   0  0  0  0  0  0  0  0  0  0  0  0
    6.0623    1.2186    1.0132 C   0  0  0  0  0  0  0  0  0  0  0  0
    4.6687    1.1747    0.9015 C   0  0  0  0  0  0  0  0  0  0  0  0
    3.7449    2.0820    2.0502 Cl  0  0  0  0  0  0  0  0  0  0  0  0
    4.0393    0.4246   -0.1099 C   0  0  0  0  0  0  0  0  0  0  0  0
    2.6342    0.3985   -0.2256 N   0  0  0  0  0  0  0  0  0  0  0  0
    2.1741   -0.5574    0.4389 N   0  0  0  0  0  0  0  0  0  0  0  0
    0.7748   -0.5855    0.3237 C   0  0  0  0  0  0  0  0  0  0  0  0
   -0.0276    0.1352    1.2081 C   0  0  0  0  0  0  0  0  0  0  0  0
   -1.4252    0.0862    1.1086 C   0  0  0  0  0  0  0  0  0  0  0  0
   -2.0633   -0.6846    0.1257 C   0  0  0  0  0  0  0  0  0  0  0  0
   -3.4585   -0.7584   -0.0133 N   0  0  0  0  0  0  0  0  0  0  0  0
   -3.9410   -0.3718   -1.3589 C   0  0  0  0  0  0  0  0  0  0  0  0
   -5.4499   -0.2983   -1.4227 C   0  0  0  0  0  0  0  0  0  0  0  0
   -6.0252    0.9894   -0.3428 S   0  0  0  0  0  0  0  0  0  0  0  0
   -5.8449    2.2577   -1.0244 O   0  0  0  0  0  0  0  0  0  0  0  0
   -7.3349    0.5956    0.1437 O   0  0  0  0  0  0  0  0  0  0  0  0
   -4.8997    0.9439    1.0335 C   0  0  0  0  0  0  0  0  0  0  0  0
   -4.3180   -0.4462    1.1418 C   0  0  0  0  0  0  0  0  0  0  0  0
   -1.2365   -1.4158   -0.7451 C   0  0  0  0  0  0  0  0  0  0  0  0
    0.1597   -1.3717   -0.6484 C   0  0  0  0  0  0  0  0  0  0  0  0
    4.8546   -0.2630   -1.0287 C   0  0  0  0  0  0  0  0  0  0  0  0
    4.1665   -1.1781   -2.3269 Cl  0  0  0  0  0  0  0  0  0  0  0  0
    6.2494   -0.2288   -0.9301 C   0  0  0  0  0  0  0  0  0  0  0  0
    6.5197    1.8035    1.8097 H   0  0  0  0  0  0  0  0  0  0  0  0
    0.4372    0.7468    1.9774 H   0  0  0  0  0  0  0  0  0  0  0  0
   -1.9916    0.6906    1.8099 H   0  0  0  0  0  0  0  0  0  0  0  0
   -3.6137   -1.1111   -2.0985 H   0  0  0  0  0  0  0  0  0  0  0  0
   -3.5102    0.5973   -1.6444 H   0  0  0  0  0  0  0  0  0  0  0  0
   -5.7960   -0.0597   -2.4327 H   0  0  0  0  0  0  0  0  0  0  0  0
   -5.9120   -1.2391   -1.1073 H   0  0  0  0  0  0  0  0  0  0  0  0
   -5.4651    1.2123    1.9304 H   0  0  0  0  0  0  0  0  0  0  0  0
   -4.1262    1.6982    0.8608 H   0  0  0  0  0  0  0  0  0  0  0  0
   -5.1230   -1.1916    1.1779 H   0  0  0  0  0  0  0  0  0  0  0  0
   -3.7857   -0.5689    2.0919 H   0  0  0  0  0  0  0  0  0  0  0  0
   -1.6746   -2.0634   -1.5006 H   0  0  0  0  0  0  0  0  0  0  0  0
    0.7677   -1.9567   -1.3334 H   0  0  0  0  0  0  0  0  0  0  0  0
    6.8531   -0.7755   -1.6528 H   0  0  0  0  0  0  0  0  0  0  0  0
  1  2  2  0
  2  3  1  0
  2  4  1  0
  4  5  1  0
  5  6  2  0
  6  7  1  0
  6  8  1  0
  8  9  1  0
  9 10  2  3
 10 11  1  0
 11 12  1  0
 12 13  2  0
 13 14  1  0
 14 15  1  0
 15 16  1  0
 16 17  1  0
 17 18  1  0
 18 19  2  0
 18 20  2  0
 18 21  1  0
 21 22  1  0
 14 23  2  0
 23 24  1  0
  8 25  2  0
 25 26  1  0
 25 27  1  0
 27  4  2  0
 24 11  2  0
 22 15  1  0
  5 28  1  0
 12 29  1  0
 13 30  1  0
 16 31  1  0
 16 32  1  0
 17 33  1  0
 17 34  1  0
 21 35  1  0
 21 36  1  0
 22 37  1  0
 22 38  1  0
 23 39  1  0
 24 40  1  0
 27 41  1  0
M  CHG  2   2   1   3  -1
M  END
$$$$
