
     RDKit          3D

 32 32  0  0  0  0  0  0  0  0999 V2000
   -2.9467   -1.9653   -1.0378 O   0  0  0  0  0  0  0  0  0  0  0  0
   -2.9653   -0.7549   -0.8083 C   0  0  0  0  0  0  0  0  0  0  0  0
   -2.0493   -0.1657    0.0390 N   0  0  0  0  0  0  0  0  0  0  0  0
   -1.0298   -0.9271    0.7706 C   0  0  0  0  0  0  0  0  0  0  0  0
   -1.6580   -1.6198    1.9953 C   0  0  0  0  0  0  0  0  0  0  0  0
   -0.7988   -2.6469    2.4881 O   0  0  0  0  0  0  0  0  0  0  0  0
    0.1382   -0.0014    1.2196 C   0  0  0  0  0  0  0  0  0  0  0  0
   -0.4124    1.2460    1.6780 O   0  0  0  0  0  0  0  0  0  0  0  0
    1.2047    0.3084    0.1771 C   0  0  0  0  0  0  0  0  0  0  0  0
    0.9166    0.4310   -1.1911 C   0  0  0  0  0  0  0  0  0  0  0  0
    1.9192    0.7492   -2.1133 C   0  0  0  0  0  0  0  0  0  0  0  0
    3.2245    0.9673   -1.6659 C   0  0  0  0  0  0  0  0  0  0  0  0
    4.2754    1.3167   -2.6274 N   0  0  0  0  0  0  0  0  0  0  0  0
    4.0491    1.1032   -3.8277 O   0  0  0  0  0  0  0  0  0  0  0  0
    5.3222    1.8084   -2.1834 O   0  0  0  0  0  0  0  0  0  0  0  0
    3.5384    0.8564   -0.3067 C   0  0  0  0  0  0  0  0  0  0  0  0
    2.5294    0.5289    0.6049 C   0  0  0  0  0  0  0  0  0  0  0  0
   -4.0042    0.1734   -1.4357 C   0  0  0  0  0  0  0  0  0  0  0  0
   -5.1146    0.7388   -0.1730 Cl  0  0  0  0  0  0  0  0  0  0  0  0
   -3.1853    1.5441   -2.2179 Cl  0  0  0  0  0  0  0  0  0  0  0  0
   -2.1865    0.7970    0.3415 H   0  0  0  0  0  0  0  0  0  0  0  0
   -0.6398   -1.7111    0.1087 H   0  0  0  0  0  0  0  0  0  0  0  0
   -2.6205   -2.0809    1.7486 H   0  0  0  0  0  0  0  0  0  0  0  0
   -1.8418   -0.9044    2.8028 H   0  0  0  0  0  0  0  0  0  0  0  0
   -0.9593   -3.4335    1.9325 H   0  0  0  0  0  0  0  0  0  0  0  0
    0.6429   -0.4670    2.0770 H   0  0  0  0  0  0  0  0  0  0  0  0
    0.3162    1.8909    1.6851 H   0  0  0  0  0  0  0  0  0  0  0  0
   -0.0941    0.2886   -1.5694 H   0  0  0  0  0  0  0  0  0  0  0  0
    1.6626    0.8337   -3.1671 H   0  0  0  0  0  0  0  0  0  0  0  0
    4.5551    1.0194    0.0561 H   0  0  0  0  0  0  0  0  0  0  0  0
    2.7870    0.4428    1.6612 H   0  0  0  0  0  0  0  0  0  0  0  0
   -4.5754   -0.3663   -2.1967 H   0  0  0  0  0  0  0  0  0  0  0  0
  1  2  2  0
  2  3  1  0
  3  4  1  0
  4  5  1  0
  5  6  1  0
  4  7  1  0
  7  8  1  0
  7  9  1  0
  9 10  1  0
 10 11  2  0
 11 12  1  0
 12 13  1  0
 13 14  2  0
 13 15  1  0
 12 16  2  0
 16 17  1  0
  2 18  1  0
 18 19  1  0
 18 20  1  0
 17  9  2  0
  3 21  1  0
  4 22  1  0
  5 23  1  0
  5 24  1  0
  6 25  1  0
  7 26  1  0
  8 27  1  0
 10 28  1  0
 11 29  1  0
 16 30  1  0
 17 31  1  0
 18 32  1  0
M  CHG  2  13   1  15  -1
M  END
$$$$
