
     RDKit          3D

 34 35  0  0  0  0  0  0  0  0999 V2000
    4.9174   -1.2411    2.2339 O   0  0  0  0  0  0  0  0  0  0  0  0
    4.5748   -0.1207    1.8353 N   0  0  0  0  0  0  0  0  0  0  0  0
    5.1404    0.9405    2.1283 O   0  0  0  0  0  0  0  0  0  0  0  0
    3.4085   -0.0437    0.9433 C   0  0  0  0  0  0  0  0  0  0  0  0
    2.9110    1.2025    0.5610 C   0  0  0  0  0  0  0  0  0  0  0  0
    1.7985    1.2493   -0.2915 C   0  0  0  0  0  0  0  0  0  0  0  0
    1.3083    2.5661   -0.6851 N   0  0  0  0  0  0  0  0  0  0  0  0
    1.2679    3.4394    0.1907 O   0  0  0  0  0  0  0  0  0  0  0  0
    0.9849    2.7191   -1.8712 O   0  0  0  0  0  0  0  0  0  0  0  0
    1.1640    0.0797   -0.7731 C   0  0  0  0  0  0  0  0  0  0  0  0
   -0.0104    0.1276   -1.5647 N   0  0  0  0  0  0  0  0  0  0  0  0
   -1.3412    0.2673   -1.0595 C   0  0  0  0  0  0  0  0  0  0  0  0
   -1.6765   -0.1030    0.2520 C   0  0  0  0  0  0  0  0  0  0  0  0
   -3.0009   -0.0194    0.7219 C   0  0  0  0  0  0  0  0  0  0  0  0
   -3.3385   -0.4337    2.1351 C   0  0  0  0  0  0  0  0  0  0  0  0
   -4.3414    0.3083    2.6800 F   0  0  0  0  0  0  0  0  0  0  0  0
   -2.2830   -0.3172    2.9887 F   0  0  0  0  0  0  0  0  0  0  0  0
   -3.7429   -1.7299    2.2118 F   0  0  0  0  0  0  0  0  0  0  0  0
   -4.0090    0.4117   -0.1516 C   0  0  0  0  0  0  0  0  0  0  0  0
   -3.7013    0.7565   -1.4673 C   0  0  0  0  0  0  0  0  0  0  0  0
   -2.3826    0.6749   -1.9186 C   0  0  0  0  0  0  0  0  0  0  0  0
   -2.0520    1.1078   -3.5602 Cl  0  0  0  0  0  0  0  0  0  0  0  0
    1.6887   -1.1736   -0.3840 C   0  0  0  0  0  0  0  0  0  0  0  0
    1.0753   -2.4714   -0.8730 C   0  0  0  0  0  0  0  0  0  0  0  0
    0.8934   -2.5135   -2.2197 F   0  0  0  0  0  0  0  0  0  0  0  0
   -0.1318   -2.7291   -0.3012 F   0  0  0  0  0  0  0  0  0  0  0  0
    1.8515   -3.5555   -0.5815 F   0  0  0  0  0  0  0  0  0  0  0  0
    2.8080   -1.2227    0.4777 C   0  0  0  0  0  0  0  0  0  0  0  0
    3.3731    2.1241    0.9144 H   0  0  0  0  0  0  0  0  0  0  0  0
    0.0865    0.8102   -2.3336 H   0  0  0  0  0  0  0  0  0  0  0  0
   -0.9116   -0.4710    0.9327 H   0  0  0  0  0  0  0  0  0  0  0  0
   -5.0423    0.4729    0.1893 H   0  0  0  0  0  0  0  0  0  0  0  0
   -4.4931    1.0822   -2.1380 H   0  0  0  0  0  0  0  0  0  0  0  0
    3.2063   -2.1946    0.7775 H   0  0  0  0  0  0  0  0  0  0  0  0
  1  2  2  0
  2  3  1  0
  2  4  1  0
  4  5  2  0
  5  6  1  0
  6  7  1  0
  7  8  2  0
  7  9  1  0
  6 10  2  0
 10 11  1  0
 11 12  1  0
 12 13  1  0
 13 14  2  0
 14 15  1  0
 15 16  1  0
 15 17  1  0
 15 18  1  0
 14 19  1  0
 19 20  2  0
 20 21  1  0
 21 22  1  0
 10 23  1  0
 23 24  1  0
 24 25  1  0
 24 26  1  0
 24 27  1  0
 23 28  2  0
 28  4  1  0
 21 12  2  0
  5 29  1  0
 11 30  1  0
 13 31  1  0
 19 32  1  0
 20 33  1  0
 28 34  1  0
M  CHG  4   2   1   3  -1   7   1   9  -1
M  END
$$$$
