
     RDKit          3D

 16 16  0  0  0  0  0  0  0  0999 V2000
    1.0569    1.8076   -0.7794 N   0  0  0  0  0  0  0  0  0  0  0  0
    0.2616    0.8160   -0.1774 C   0  0  0  0  0  0  0  0  0  0  0  0
   -1.0230    1.1797    0.2543 C   0  0  0  0  0  0  0  0  0  0  0  0
   -1.9267    0.2278    0.7394 C   0  0  0  0  0  0  0  0  0  0  0  0
   -1.5799   -1.1203    0.7661 C   0  0  0  0  0  0  0  0  0  0  0  0
   -0.3322   -1.5209    0.2942 C   0  0  0  0  0  0  0  0  0  0  0  0
    0.5723   -0.5585   -0.1899 C   0  0  0  0  0  0  0  0  0  0  0  0
    1.8668   -1.0307   -0.6836 N   0  0  0  0  0  0  0  0  0  0  0  0
    2.8447   -0.2739   -0.5687 O   0  0  0  0  0  0  0  0  0  0  0  0
    1.9151   -2.1722   -1.1664 O   0  0  0  0  0  0  0  0  0  0  0  0
    0.9017    2.7459   -0.4224 H   0  0  0  0  0  0  0  0  0  0  0  0
    2.0538    1.5735   -0.7971 H   0  0  0  0  0  0  0  0  0  0  0  0
   -1.3373    2.2207    0.2113 H   0  0  0  0  0  0  0  0  0  0  0  0
   -2.9102    0.5425    1.0817 H   0  0  0  0  0  0  0  0  0  0  0  0
   -2.2870   -1.8585    1.1376 H   0  0  0  0  0  0  0  0  0  0  0  0
   -0.0767   -2.5788    0.3003 H   0  0  0  0  0  0  0  0  0  0  0  0
  1  2  1  0
  2  3  2  0
  3  4  1  0
  4  5  2  0
  5  6  1  0
  6  7  2  0
  7  8  1  0
  8  9  2  0
  8 10  1  0
  7  2  1  0
  1 11  1  0
  1 12  1  0
  3 13  1  0
  4 14  1  0
  5 15  1  0
  6 16  1  0
M  CHG  2   8   1  10  -1
M  END
$$$$
