
     RDKit          3D

 39 41  0  0  0  0  0  0  0  0999 V2000
   -4.9503   -1.9007   -1.1446 C   0  0  0  0  0  0  0  0  0  0  0  0
   -3.9244   -1.5751   -0.1868 N   0  0  0  0  0  0  0  0  0  0  0  0
   -2.9548   -0.6416   -0.4789 C   0  0  0  0  0  0  0  0  0  0  0  0
   -3.0154    0.0203   -1.5175 O   0  0  0  0  0  0  0  0  0  0  0  0
   -1.9241   -0.5054    0.4755 N   0  0  0  0  0  0  0  0  0  0  0  0
   -1.6370   -1.5238    1.3965 C   0  0  0  0  0  0  0  0  0  0  0  0
   -2.2708   -2.5846    1.4637 O   0  0  0  0  0  0  0  0  0  0  0  0
   -0.5038   -1.2682    2.3788 C   0  0  0  0  0  0  0  0  0  0  0  0
    0.7556   -1.4348    1.6621 N   0  0  0  0  0  0  0  0  0  0  0  0
    1.0793   -0.5300    0.8007 C   0  0  0  0  0  0  0  0  0  0  0  0
    2.3255   -0.7435    0.0008 C   0  0  0  0  0  0  0  0  0  0  0  0
    2.4066   -0.3360   -1.3370 C   0  0  0  0  0  0  0  0  0  0  0  0
    3.5829   -0.5478   -2.0591 C   0  0  0  0  0  0  0  0  0  0  0  0
    4.6725   -1.1738   -1.4538 C   0  0  0  0  0  0  0  0  0  0  0  0
    4.5877   -1.5985   -0.1283 C   0  0  0  0  0  0  0  0  0  0  0  0
    3.4144   -1.3894    0.5979 C   0  0  0  0  0  0  0  0  0  0  0  0
    0.2844    0.7111    0.5824 C   0  0  0  0  0  0  0  0  0  0  0  0
    1.0000    1.9256    0.5596 C   0  0  0  0  0  0  0  0  0  0  0  0
    0.3307    3.1277    0.3123 C   0  0  0  0  0  0  0  0  0  0  0  0
    1.0800    4.3901    0.2802 N   0  0  0  0  0  0  0  0  0  0  0  0
    2.3098    4.3300    0.4132 O   0  0  0  0  0  0  0  0  0  0  0  0
    0.4370    5.4370    0.1252 O   0  0  0  0  0  0  0  0  0  0  0  0
   -1.0465    3.1313    0.0971 C   0  0  0  0  0  0  0  0  0  0  0  0
   -1.7528    1.9241    0.1438 C   0  0  0  0  0  0  0  0  0  0  0  0
   -1.1126    0.6897    0.3958 C   0  0  0  0  0  0  0  0  0  0  0  0
   -5.4073   -0.9855   -1.5308 H   0  0  0  0  0  0  0  0  0  0  0  0
   -5.7059   -2.5145   -0.6492 H   0  0  0  0  0  0  0  0  0  0  0  0
   -4.4998   -2.4590   -1.9697 H   0  0  0  0  0  0  0  0  0  0  0  0
   -3.6310   -2.3234    0.4412 H   0  0  0  0  0  0  0  0  0  0  0  0
   -0.6039   -0.2985    2.8787 H   0  0  0  0  0  0  0  0  0  0  0  0
   -0.5601   -2.0251    3.1693 H   0  0  0  0  0  0  0  0  0  0  0  0
    1.5617    0.1274   -1.8391 H   0  0  0  0  0  0  0  0  0  0  0  0
    3.6478   -0.2334   -3.0982 H   0  0  0  0  0  0  0  0  0  0  0  0
    5.5862   -1.3411   -2.0194 H   0  0  0  0  0  0  0  0  0  0  0  0
    5.4329   -2.0979    0.3388 H   0  0  0  0  0  0  0  0  0  0  0  0
    3.3531   -1.7316    1.6287 H   0  0  0  0  0  0  0  0  0  0  0  0
    2.0753    1.9248    0.7365 H   0  0  0  0  0  0  0  0  0  0  0  0
   -1.5901    4.0541   -0.1001 H   0  0  0  0  0  0  0  0  0  0  0  0
   -2.8329    1.9697   -0.0021 H   0  0  0  0  0  0  0  0  0  0  0  0
  1  2  1  0
  2  3  1  0
  3  4  2  0
  3  5  1  0
  5  6  1  0
  6  7  2  0
  6  8  1  0
  8  9  1  0
  9 10  2  0
 10 11  1  0
 11 12  2  0
 12 13  1  0
 13 14  2  0
 14 15  1  0
 15 16  2  0
 10 17  1  0
 17 18  1  0
 18 19  2  0
 19 20  1  0
 20 21  2  0
 20 22  1  0
 19 23  1  0
 23 24  2  0
 24 25  1  0
 25  5  1  0
 16 11  1  0
 25 17  2  0
  1 26  1  0
  1 27  1  0
  1 28  1  0
  2 29  1  0
  8 30  1  0
  8 31  1  0
 12 32  1  0
 13 33  1  0
 14 34  1  0
 15 35  1  0
 16 36  1  0
 18 37  1  0
 23 38  1  0
 24 39  1  0
M  CHG  2  20   1  22  -1
M  END
$$$$
