
     RDKit          3D

 19 19  0  0  0  0  0  0  0  0999 V2000
    3.0932   -2.0775   -0.4768 O   0  0  0  0  0  0  0  0  0  0  0  0
    2.8277   -0.8843   -0.6668 N   0  0  0  0  0  0  0  0  0  0  0  0
    3.6199   -0.0407   -1.1042 O   0  0  0  0  0  0  0  0  0  0  0  0
    1.4646   -0.4337   -0.3495 C   0  0  0  0  0  0  0  0  0  0  0  0
    1.1271    0.9125   -0.5134 C   0  0  0  0  0  0  0  0  0  0  0  0
   -0.1790    1.3122   -0.2058 C   0  0  0  0  0  0  0  0  0  0  0  0
   -0.5100    2.7088   -0.3893 N   0  0  0  0  0  0  0  0  0  0  0  0
   -1.1100    3.0089   -1.4285 O   0  0  0  0  0  0  0  0  0  0  0  0
   -0.1037    3.4920    0.4780 O   0  0  0  0  0  0  0  0  0  0  0  0
   -1.1537    0.4232    0.2633 C   0  0  0  0  0  0  0  0  0  0  0  0
   -2.3927    0.9239    0.5521 O   0  0  0  0  0  0  0  0  0  0  0  0
   -0.7909   -0.9249    0.4185 C   0  0  0  0  0  0  0  0  0  0  0  0
   -1.7596   -1.9163    0.9040 N   0  0  0  0  0  0  0  0  0  0  0  0
   -1.3761   -3.0843    1.0364 O   0  0  0  0  0  0  0  0  0  0  0  0
   -2.9067   -1.5154    1.1512 O   0  0  0  0  0  0  0  0  0  0  0  0
    0.5152   -1.3589    0.1133 C   0  0  0  0  0  0  0  0  0  0  0  0
    1.8525    1.6427   -0.8712 H   0  0  0  0  0  0  0  0  0  0  0  0
   -3.0086    0.2191    0.8525 H   0  0  0  0  0  0  0  0  0  0  0  0
    0.7907   -2.4074    0.2361 H   0  0  0  0  0  0  0  0  0  0  0  0
  1  2  2  0
  2  3  1  0
  2  4  1  0
  4  5  2  0
  5  6  1  0
  6  7  1  0
  7  8  2  0
  7  9  1  0
  6 10  2  0
 10 11  1  0
 10 12  1  0
 12 13  1  0
 13 14  2  0
 13 15  1  0
 12 16  2  0
 16  4  1  0
  5 17  1  0
 11 18  1  0
 16 19  1  0
M  CHG  6   2   1   3  -1   7   1   9  -1  13   1  15  -1
M  END
$$$$
