
     RDKit          3D

 14 14  0  0  0  0  0  0  0  0999 V2000
   -2.4330   -1.5278    1.0961 O   0  0  0  0  0  0  0  0  0  0  0  0
   -2.1476   -0.8640    0.0917 N   0  0  0  0  0  0  0  0  0  0  0  0
   -2.8775   -0.6733   -0.8884 O   0  0  0  0  0  0  0  0  0  0  0  0
   -0.8184   -0.3078    0.0385 C   0  0  0  0  0  0  0  0  0  0  0  0
    0.2485   -1.1947   -0.1505 C   0  0  0  0  0  0  0  0  0  0  0  0
    1.5383   -0.6774   -0.2127 C   0  0  0  0  0  0  0  0  0  0  0  0
    2.8717   -1.7364   -0.4477 Cl  0  0  0  0  0  0  0  0  0  0  0  0
    1.7586    0.6959   -0.0864 C   0  0  0  0  0  0  0  0  0  0  0  0
    0.6792    1.5663    0.1086 C   0  0  0  0  0  0  0  0  0  0  0  0
   -0.6245    1.0672    0.1742 C   0  0  0  0  0  0  0  0  0  0  0  0
   -1.9072    2.1860    0.4476 Cl  0  0  0  0  0  0  0  0  0  0  0  0
    0.0755   -2.2640   -0.2474 H   0  0  0  0  0  0  0  0  0  0  0  0
    2.7693    1.0965   -0.1353 H   0  0  0  0  0  0  0  0  0  0  0  0
    0.8670    2.6335    0.2119 H   0  0  0  0  0  0  0  0  0  0  0  0
  1  2  2  0
  2  3  1  0
  2  4  1  0
  4  5  1  0
  5  6  2  0
  6  7  1  0
  6  8  1  0
  8  9  2  0
  9 10  1  0
 10 11  1  0
 10  4  2  0
  5 12  1  0
  8 13  1  0
  9 14  1  0
M  CHG  2   2   1   3  -1
M  END
$$$$
