
     RDKit          3D

 18 18  0  0  0  0  0  0  0  0999 V2000
    0.3305   -1.3764   -0.2940 C   0  0  0  0  0  0  0  0  0  0  0  0
    1.4567   -0.3456   -0.1920 C   0  0  0  0  0  0  0  0  0  0  0  0
    0.9657    1.0689    0.1232 C   0  0  0  0  0  0  0  0  0  0  0  0
   -0.4383    1.3146   -0.4125 C   0  0  0  0  0  0  0  0  0  0  0  0
   -1.4567    0.3456    0.1920 C   0  0  0  0  0  0  0  0  0  0  0  0
   -0.8579   -1.0070    0.5833 C   0  0  0  0  0  0  0  0  0  0  0  0
   -0.0025   -1.4481   -1.3372 H   0  0  0  0  0  0  0  0  0  0  0  0
    0.7124   -2.3665   -0.0206 H   0  0  0  0  0  0  0  0  0  0  0  0
    2.1698   -0.6502    0.5837 H   0  0  0  0  0  0  0  0  0  0  0  0
    2.0161   -0.3430   -1.1354 H   0  0  0  0  0  0  0  0  0  0  0  0
    1.6656    1.8023   -0.2928 H   0  0  0  0  0  0  0  0  0  0  0  0
    0.9661    1.2195    1.2103 H   0  0  0  0  0  0  0  0  0  0  0  0
   -0.7477    2.3463   -0.2107 H   0  0  0  0  0  0  0  0  0  0  0  0
   -0.4310    1.1992   -1.5038 H   0  0  0  0  0  0  0  0  0  0  0  0
   -2.2700    0.1972   -0.5288 H   0  0  0  0  0  0  0  0  0  0  0  0
   -1.9159    0.7960    1.0804 H   0  0  0  0  0  0  0  0  0  0  0  0
   -0.5327   -0.9706    1.6308 H   0  0  0  0  0  0  0  0  0  0  0  0
   -1.6304   -1.7820    0.5241 H   0  0  0  0  0  0  0  0  0  0  0  0
  1  2  1  0
  2  3  1  0
  3  4  1  0
  4  5  1  0
  5  6  1  0
  6  1  1  0
  1  7  1  0
  1  8  1  0
  2  9  1  0
  2 10  1  0
  3 11  1  0
  3 12  1  0
  4 13  1  0
  4 14  1  0
  5 15  1  0
  5 16  1  0
  6 17  1  0
  6 18  1  0
M  END
$$$$
