
     RDKit          3D

 21 21  0  0  0  0  0  0  0  0999 V2000
   -3.3284    0.0668    0.0724 C   0  0  0  0  0  0  0  0  0  0  0  0
   -1.8816   -0.3785   -0.0698 C   0  0  0  0  0  0  0  0  0  0  0  0
   -0.9132    0.7689    0.2196 C   0  0  0  0  0  0  0  0  0  0  0  0
    0.5241    0.3338    0.0802 C   0  0  0  0  0  0  0  0  0  0  0  0
    1.1780    0.4262   -1.1556 C   0  0  0  0  0  0  0  0  0  0  0  0
    2.5032    0.0082   -1.2876 C   0  0  0  0  0  0  0  0  0  0  0  0
    3.1848   -0.5098   -0.1880 C   0  0  0  0  0  0  0  0  0  0  0  0
    2.5415   -0.6123    1.0440 C   0  0  0  0  0  0  0  0  0  0  0  0
    1.2163   -0.1947    1.1779 C   0  0  0  0  0  0  0  0  0  0  0  0
   -4.0043   -0.7677   -0.1385 H   0  0  0  0  0  0  0  0  0  0  0  0
   -3.5318    0.4203    1.0883 H   0  0  0  0  0  0  0  0  0  0  0  0
   -3.5600    0.8767   -0.6267 H   0  0  0  0  0  0  0  0  0  0  0  0
   -1.7219   -0.7608   -1.0854 H   0  0  0  0  0  0  0  0  0  0  0  0
   -1.6939   -1.2136    0.6161 H   0  0  0  0  0  0  0  0  0  0  0  0
   -1.0790    1.1579    1.2323 H   0  0  0  0  0  0  0  0  0  0  0  0
   -1.1069    1.6084   -0.4603 H   0  0  0  0  0  0  0  0  0  0  0  0
    0.6572    0.8242   -2.0235 H   0  0  0  0  0  0  0  0  0  0  0  0
    3.0030    0.0855   -2.2495 H   0  0  0  0  0  0  0  0  0  0  0  0
    4.2162   -0.8356   -0.2916 H   0  0  0  0  0  0  0  0  0  0  0  0
    3.0712   -1.0191    1.9013 H   0  0  0  0  0  0  0  0  0  0  0  0
    0.7256   -0.2849    2.1443 H   0  0  0  0  0  0  0  0  0  0  0  0
  1  2  1  0
  2  3  1  0
  3  4  1  0
  4  5  2  0
  5  6  1  0
  6  7  2  0
  7  8  1  0
  8  9  2  0
  9  4  1  0
  1 10  1  0
  1 11  1  0
  1 12  1  0
  2 13  1  0
  2 14  1  0
  3 15  1  0
  3 16  1  0
  5 17  1  0
  6 18  1  0
  7 19  1  0
  8 20  1  0
  9 21  1  0
M  END
$$$$
