
     RDKit          3D

 12 12  0  0  0  0  0  0  0  0999 V2000
    3.1553   -0.6191   -0.0134 Br  0  0  0  0  0  0  0  0  0  0  0  0
    1.3000   -0.2551   -0.0055 C   0  0  0  0  0  0  0  0  0  0  0  0
    0.8543    1.0661   -0.0193 C   0  0  0  0  0  0  0  0  0  0  0  0
   -0.5155    1.3331   -0.0135 C   0  0  0  0  0  0  0  0  0  0  0  0
   -1.4319    0.2810    0.0061 C   0  0  0  0  0  0  0  0  0  0  0  0
   -0.9809   -1.0395    0.0198 C   0  0  0  0  0  0  0  0  0  0  0  0
    0.3883   -1.3099    0.0140 C   0  0  0  0  0  0  0  0  0  0  0  0
    1.5620    1.8904   -0.0345 H   0  0  0  0  0  0  0  0  0  0  0  0
   -0.8685    2.3612   -0.0241 H   0  0  0  0  0  0  0  0  0  0  0  0
   -2.4989    0.4903    0.0106 H   0  0  0  0  0  0  0  0  0  0  0  0
   -1.6962   -1.8580    0.0350 H   0  0  0  0  0  0  0  0  0  0  0  0
    0.7321   -2.3405    0.0248 H   0  0  0  0  0  0  0  0  0  0  0  0
  1  2  1  0
  2  3  2  0
  3  4  1  0
  4  5  2  0
  5  6  1  0
  6  7  2  0
  7  2  1  0
  3  8  1  0
  4  9  1  0
  5 10  1  0
  6 11  1  0
  7 12  1  0
M  END
$$$$
