
     RDKit          3D

 15 14  0  0  0  0  0  0  0  0999 V2000
    2.2910    0.7768    0.1736 C   0  0  0  0  0  0  0  0  0  0  0  0
    1.2351   -0.2995    0.0192 C   0  0  0  0  0  0  0  0  0  0  0  0
   -0.0476    0.3223    0.0315 O   0  0  0  0  0  0  0  0  0  0  0  0
   -1.0977   -0.6314   -0.1101 C   0  0  0  0  0  0  0  0  0  0  0  0
   -2.4215    0.1065   -0.0874 C   0  0  0  0  0  0  0  0  0  0  0  0
    3.2946    0.3424    0.1694 H   0  0  0  0  0  0  0  0  0  0  0  0
    2.1475    1.3262    1.1099 H   0  0  0  0  0  0  0  0  0  0  0  0
    2.2186    1.5075   -0.6388 H   0  0  0  0  0  0  0  0  0  0  0  0
    1.3801   -0.8301   -0.9283 H   0  0  0  0  0  0  0  0  0  0  0  0
    1.3079   -1.0141    0.8464 H   0  0  0  0  0  0  0  0  0  0  0  0
   -1.0581   -1.3506    0.7153 H   0  0  0  0  0  0  0  0  0  0  0  0
   -0.9859   -1.1667   -1.0593 H   0  0  0  0  0  0  0  0  0  0  0  0
   -3.2581   -0.5897   -0.1936 H   0  0  0  0  0  0  0  0  0  0  0  0
   -2.4675    0.8409   -0.8983 H   0  0  0  0  0  0  0  0  0  0  0  0
   -2.5386    0.6597    0.8503 H   0  0  0  0  0  0  0  0  0  0  0  0
  1  2  1  0
  2  3  1  0
  3  4  1  0
  4  5  1  0
  1  6  1  0
  1  7  1  0
  1  8  1  0
  2  9  1  0
  2 10  1  0
  4 11  1  0
  4 12  1  0
  5 13  1  0
  5 14  1  0
  5 15  1  0
M  END
$$$$
