
     RDKit          3D

  7  6  0  0  0  0  0  0  0  0999 V2000
   -0.5744    0.0038    0.0158 C   0  0  0  0  0  0  0  0  0  0  0  0
    0.8405    0.1651    0.2994 N   0  0  0  0  0  0  0  0  0  0  0  0
   -1.0522   -0.5870    0.8022 H   0  0  0  0  0  0  0  0  0  0  0  0
   -0.7194   -0.5042   -0.9419 H   0  0  0  0  0  0  0  0  0  0  0  0
   -1.0647    0.9803   -0.0273 H   0  0  0  0  0  0  0  0  0  0  0  0
    1.2908   -0.7491    0.3069 H   0  0  0  0  0  0  0  0  0  0  0  0
    1.2794    0.6911   -0.4552 H   0  0  0  0  0  0  0  0  0  0  0  0
  1  2  1  0
  1  3  1  0
  1  4  1  0
  1  5  1  0
  2  6  1  0
  2  7  1  0
M  END
$$$$
