
     RDKit          3D

 13 12  0  0  0  0  0  0  0  0999 V2000
    1.4693    0.2670   -0.6071 C   0  0  0  0  0  0  0  0  0  0  0  0
    0.5723   -0.6930    0.1614 C   0  0  0  0  0  0  0  0  0  0  0  0
   -0.8188   -0.6685   -0.2933 N   0  0  0  0  0  0  0  0  0  0  0  0
   -1.5062    0.5639    0.0720 C   0  0  0  0  0  0  0  0  0  0  0  0
    2.5130    0.1220   -0.3090 H   0  0  0  0  0  0  0  0  0  0  0  0
    1.2121    1.3118   -0.4086 H   0  0  0  0  0  0  0  0  0  0  0  0
    1.4021    0.0927   -1.6862 H   0  0  0  0  0  0  0  0  0  0  0  0
    0.9551   -1.7087    0.0077 H   0  0  0  0  0  0  0  0  0  0  0  0
    0.6348   -0.4949    1.2378 H   0  0  0  0  0  0  0  0  0  0  0  0
   -1.3135   -1.4526    0.1327 H   0  0  0  0  0  0  0  0  0  0  0  0
   -1.0857    1.4319   -0.4437 H   0  0  0  0  0  0  0  0  0  0  0  0
   -2.5569    0.4921   -0.2266 H   0  0  0  0  0  0  0  0  0  0  0  0
   -1.4777    0.7363    1.1528 H   0  0  0  0  0  0  0  0  0  0  0  0
  1  2  1  0
  2  3  1  0
  3  4  1  0
  1  5  1  0
  1  6  1  0
  1  7  1  0
  2  8  1  0
  2  9  1  0
  3 10  1  0
  4 11  1  0
  4 12  1  0
  4 13  1  0
M  END
$$$$
