
     RDKit          3D

 15 14  0  0  0  0  0  0  0  0999 V2000
    0.2782   -1.0582   -0.9418 C   0  0  0  0  0  0  0  0  0  0  0  0
    0.1305   -0.0533    0.1998 C   0  0  0  0  0  0  0  0  0  0  0  0
   -1.3420    0.2555    0.4668 C   0  0  0  0  0  0  0  0  0  0  0  0
    0.9007    1.2285   -0.1097 C   0  0  0  0  0  0  0  0  0  0  0  0
    0.6972   -0.6212    1.3813 O   0  0  0  0  0  0  0  0  0  0  0  0
   -0.1255   -0.6648   -1.8804 H   0  0  0  0  0  0  0  0  0  0  0  0
   -0.2402   -1.9950   -0.7079 H   0  0  0  0  0  0  0  0  0  0  0  0
    1.3314   -1.3184   -1.0979 H   0  0  0  0  0  0  0  0  0  0  0  0
   -1.8230    0.7116   -0.4046 H   0  0  0  0  0  0  0  0  0  0  0  0
   -1.8917   -0.6559    0.7280 H   0  0  0  0  0  0  0  0  0  0  0  0
   -1.4489    0.9360    1.3193 H   0  0  0  0  0  0  0  0  0  0  0  0
    0.5190    1.7223   -1.0093 H   0  0  0  0  0  0  0  0  0  0  0  0
    0.8369    1.9337    0.7269 H   0  0  0  0  0  0  0  0  0  0  0  0
    1.9665    1.0178   -0.2552 H   0  0  0  0  0  0  0  0  0  0  0  0
    0.2111   -1.4386    1.5844 H   0  0  0  0  0  0  0  0  0  0  0  0
  1  2  1  0
  2  3  1  0
  2  4  1  0
  2  5  1  0
  1  6  1  0
  1  7  1  0
  1  8  1  0
  3  9  1  0
  3 10  1  0
  3 11  1  0
  4 12  1  0
  4 13  1  0
  4 14  1  0
  5 15  1  0
M  END
$$$$
