
     RDKit          3D

 23 22  0  0  0  0  0  0  0  0999 V2000
   -2.7401    0.7014   -0.3836 C   0  0  0  0  0  0  0  0  0  0  0  0
   -2.2131   -0.3545    0.5752 C   0  0  0  0  0  0  0  0  0  0  0  0
   -1.3002   -1.3863   -0.0917 C   0  0  0  0  0  0  0  0  0  0  0  0
   -0.0410   -0.8269   -0.7609 C   0  0  0  0  0  0  0  0  0  0  0  0
    0.8899   -0.0956    0.2084 C   0  0  0  0  0  0  0  0  0  0  0  0
    2.1815    0.3386   -0.4860 C   0  0  0  0  0  0  0  0  0  0  0  0
    3.1097    1.0698    0.4708 C   0  0  0  0  0  0  0  0  0  0  0  0
   -3.2427    0.2397   -1.2393 H   0  0  0  0  0  0  0  0  0  0  0  0
   -3.4636    1.3449    0.1273 H   0  0  0  0  0  0  0  0  0  0  0  0
   -1.9351    1.3409   -0.7574 H   0  0  0  0  0  0  0  0  0  0  0  0
   -1.6946    0.1328    1.4080 H   0  0  0  0  0  0  0  0  0  0  0  0
   -3.0678   -0.8845    1.0130 H   0  0  0  0  0  0  0  0  0  0  0  0
   -1.0029   -2.1253    0.6627 H   0  0  0  0  0  0  0  0  0  0  0  0
   -1.8779   -1.9339   -0.8469 H   0  0  0  0  0  0  0  0  0  0  0  0
   -0.3179   -0.1601   -1.5855 H   0  0  0  0  0  0  0  0  0  0  0  0
    0.5020   -1.6661   -1.2139 H   0  0  0  0  0  0  0  0  0  0  0  0
    1.1302   -0.7518    1.0536 H   0  0  0  0  0  0  0  0  0  0  0  0
    0.3882    0.7894    0.6156 H   0  0  0  0  0  0  0  0  0  0  0  0
    2.7006   -0.5383   -0.8900 H   0  0  0  0  0  0  0  0  0  0  0  0
    1.9466    0.9953   -1.3317 H   0  0  0  0  0  0  0  0  0  0  0  0
    2.6326    1.9713    0.8682 H   0  0  0  0  0  0  0  0  0  0  0  0
    4.0265    1.3704   -0.0461 H   0  0  0  0  0  0  0  0  0  0  0  0
    3.3891    0.4288    1.3130 H   0  0  0  0  0  0  0  0  0  0  0  0
  1  2  1  0
  2  3  1  0
  3  4  1  0
  4  5  1  0
  5  6  1  0
  6  7  1  0
  1  8  1  0
  1  9  1  0
  1 10  1  0
  2 11  1  0
  2 12  1  0
  3 13  1  0
  3 14  1  0
  4 15  1  0
  4 16  1  0
  5 17  1  0
  5 18  1  0
  6 19  1  0
  6 20  1  0
  7 21  1  0
  7 22  1  0
  7 23  1  0
M  END
$$$$
