
     RDKit          3D

 10  9  0  0  0  0  0  0  0  0999 V2000
    1.1924    0.1824    0.0405 C   0  0  0  0  0  0  0  0  0  0  0  0
   -0.0686    0.2399   -0.6864 N   0  0  0  0  0  0  0  0  0  0  0  0
   -1.1898   -0.0689    0.1906 C   0  0  0  0  0  0  0  0  0  0  0  0
    1.3745   -0.8164    0.4506 H   0  0  0  0  0  0  0  0  0  0  0  0
    2.0161    0.4227   -0.6389 H   0  0  0  0  0  0  0  0  0  0  0  0
    1.2135    0.9136    0.8551 H   0  0  0  0  0  0  0  0  0  0  0  0
   -0.0458   -0.4336   -1.4516 H   0  0  0  0  0  0  0  0  0  0  0  0
   -2.1233   -0.0139   -0.3780 H   0  0  0  0  0  0  0  0  0  0  0  0
   -1.1080   -1.0783    0.6070 H   0  0  0  0  0  0  0  0  0  0  0  0
   -1.2611    0.6526    1.0111 H   0  0  0  0  0  0  0  0  0  0  0  0
  1  2  1  0
  2  3  1  0
  1  4  1  0
  1  5  1  0
  1  6  1  0
  2  7  1  0
  3  8  1  0
  3  9  1  0
  3 10  1  0
M  END
$$$$
