
     RDKit          3D

 12 12  0  0  0  0  0  0  0  0999 V2000
    2.5343   -0.9320    0.0317 F   0  0  0  0  0  0  0  0  0  0  0  0
    1.2771   -0.4697    0.0160 C   0  0  0  0  0  0  0  0  0  0  0  0
    1.0527    0.9024   -0.0169 C   0  0  0  0  0  0  0  0  0  0  0  0
   -0.2560    1.3840   -0.0333 C   0  0  0  0  0  0  0  0  0  0  0  0
   -1.3276    0.4883   -0.0166 C   0  0  0  0  0  0  0  0  0  0  0  0
   -1.0923   -0.8882    0.0164 C   0  0  0  0  0  0  0  0  0  0  0  0
    0.2166   -1.3692    0.0328 C   0  0  0  0  0  0  0  0  0  0  0  0
    1.8963    1.5847   -0.0294 H   0  0  0  0  0  0  0  0  0  0  0  0
   -0.4416    2.4547   -0.0589 H   0  0  0  0  0  0  0  0  0  0  0  0
   -2.3482    0.8636   -0.0294 H   0  0  0  0  0  0  0  0  0  0  0  0
   -1.9278   -1.5833    0.0293 H   0  0  0  0  0  0  0  0  0  0  0  0
    0.4167   -2.4354    0.0584 H   0  0  0  0  0  0  0  0  0  0  0  0
  1  2  1  0
  2  3  2  0
  3  4  1  0
  4  5  2  0
  5  6  1  0
  6  7  2  0
  7  2  1  0
  3  8  1  0
  4  9  1  0
  5 10  1  0
  6 11  1  0
  7 12  1  0
M  END
$$$$
