
     RDKit          3D

 17 16  0  0  0  0  0  0  0  0999 V2000
   -2.1729   -0.3996    0.3594 C   0  0  0  0  0  0  0  0  0  0  0  0
   -1.2600    0.3541   -0.5953 C   0  0  0  0  0  0  0  0  0  0  0  0
    0.0911    0.7276    0.0182 C   0  0  0  0  0  0  0  0  0  0  0  0
    0.9606   -0.4851    0.3525 C   0  0  0  0  0  0  0  0  0  0  0  0
    2.3308   -0.0619    0.8600 C   0  0  0  0  0  0  0  0  0  0  0  0
   -2.3192    0.1607    1.2883 H   0  0  0  0  0  0  0  0  0  0  0  0
   -1.7678   -1.3846    0.6087 H   0  0  0  0  0  0  0  0  0  0  0  0
   -3.1540   -0.5526   -0.1018 H   0  0  0  0  0  0  0  0  0  0  0  0
   -1.7665    1.2757   -0.9060 H   0  0  0  0  0  0  0  0  0  0  0  0
   -1.1062   -0.2435   -1.5013 H   0  0  0  0  0  0  0  0  0  0  0  0
   -0.0688    1.3290    0.9215 H   0  0  0  0  0  0  0  0  0  0  0  0
    0.6262    1.3665   -0.6953 H   0  0  0  0  0  0  0  0  0  0  0  0
    1.0853   -1.1115   -0.5382 H   0  0  0  0  0  0  0  0  0  0  0  0
    0.4778   -1.1001    1.1195 H   0  0  0  0  0  0  0  0  0  0  0  0
    2.9359   -0.9427    1.0964 H   0  0  0  0  0  0  0  0  0  0  0  0
    2.2428    0.5437    1.7676 H   0  0  0  0  0  0  0  0  0  0  0  0
    2.8651    0.5243    0.1055 H   0  0  0  0  0  0  0  0  0  0  0  0
  1  2  1  0
  2  3  1  0
  3  4  1  0
  4  5  1  0
  1  6  1  0
  1  7  1  0
  1  8  1  0
  2  9  1  0
  2 10  1  0
  3 11  1  0
  3 12  1  0
  4 13  1  0
  4 14  1  0
  5 15  1  0
  5 16  1  0
  5 17  1  0
M  END
$$$$
