
     RDKit          3D

 14 13  0  0  0  0  0  0  0  0999 V2000
   -1.5752    0.4695    0.0271 C   0  0  0  0  0  0  0  0  0  0  0  0
   -0.5569   -0.3146   -0.7863 C   0  0  0  0  0  0  0  0  0  0  0  0
    0.6486   -0.7783    0.0319 C   0  0  0  0  0  0  0  0  0  0  0  0
    1.5051    0.3667    0.5501 C   0  0  0  0  0  0  0  0  0  0  0  0
   -1.1625    1.4201    0.3773 H   0  0  0  0  0  0  0  0  0  0  0  0
   -1.9097   -0.1048    0.8968 H   0  0  0  0  0  0  0  0  0  0  0  0
   -2.4527    0.6955   -0.5873 H   0  0  0  0  0  0  0  0  0  0  0  0
   -0.2210    0.2943   -1.6337 H   0  0  0  0  0  0  0  0  0  0  0  0
   -1.0523   -1.1977   -1.2072 H   0  0  0  0  0  0  0  0  0  0  0  0
    0.3131   -1.3929    0.8753 H   0  0  0  0  0  0  0  0  0  0  0  0
    1.2718   -1.4214   -0.6008 H   0  0  0  0  0  0  0  0  0  0  0  0
    2.3967   -0.0272    1.0486 H   0  0  0  0  0  0  0  0  0  0  0  0
    0.9615    0.9769    1.2774 H   0  0  0  0  0  0  0  0  0  0  0  0
    1.8335    1.0140   -0.2692 H   0  0  0  0  0  0  0  0  0  0  0  0
  1  2  1  0
  2  3  1  0
  3  4  1  0
  1  5  1  0
  1  6  1  0
  1  7  1  0
  2  8  1  0
  2  9  1  0
  3 10  1  0
  3 11  1  0
  4 12  1  0
  4 13  1  0
  4 14  1  0
M  END
$$$$
