
     RDKit          3D

 11 10  0  0  0  0  0  0  0  0999 V2000
    1.2108   -0.1749   -0.3716 C   0  0  0  0  0  0  0  0  0  0  0  0
    0.0339   -0.1891    0.5890 C   0  0  0  0  0  0  0  0  0  0  0  0
   -1.2364    0.3176   -0.0729 C   0  0  0  0  0  0  0  0  0  0  0  0
    1.4119    0.8395   -0.7307 H   0  0  0  0  0  0  0  0  0  0  0  0
    2.1124   -0.5435    0.1276 H   0  0  0  0  0  0  0  0  0  0  0  0
    1.0171   -0.8142   -1.2389 H   0  0  0  0  0  0  0  0  0  0  0  0
   -0.1270   -1.2097    0.9537 H   0  0  0  0  0  0  0  0  0  0  0  0
    0.2657    0.4350    1.4592 H   0  0  0  0  0  0  0  0  0  0  0  0
   -2.0684    0.2978    0.6380 H   0  0  0  0  0  0  0  0  0  0  0  0
   -1.5074   -0.3062   -0.9307 H   0  0  0  0  0  0  0  0  0  0  0  0
   -1.1126    1.3475   -0.4225 H   0  0  0  0  0  0  0  0  0  0  0  0
  1  2  1  0
  2  3  1  0
  1  4  1  0
  1  5  1  0
  1  6  1  0
  2  7  1  0
  2  8  1  0
  3  9  1  0
  3 10  1  0
  3 11  1  0
M  END
$$$$
