
     RDKit          3D

 12 11  0  0  0  0  0  0  0  0999 V2000
   -1.7985    0.0615    0.0690 C   0  0  0  0  0  0  0  0  0  0  0  0
   -0.3621   -0.4185    0.0079 C   0  0  0  0  0  0  0  0  0  0  0  0
    0.4853    0.7140   -0.1692 O   0  0  0  0  0  0  0  0  0  0  0  0
    1.8545    0.3386   -0.2357 C   0  0  0  0  0  0  0  0  0  0  0  0
   -2.4853   -0.7786    0.2048 H   0  0  0  0  0  0  0  0  0  0  0  0
   -2.0670    0.5927   -0.8502 H   0  0  0  0  0  0  0  0  0  0  0  0
   -1.9346    0.7667    0.8957 H   0  0  0  0  0  0  0  0  0  0  0  0
   -0.1016   -0.9334    0.9392 H   0  0  0  0  0  0  0  0  0  0  0  0
   -0.2360   -1.1100   -0.8325 H   0  0  0  0  0  0  0  0  0  0  0  0
    2.4534    1.2431   -0.3713 H   0  0  0  0  0  0  0  0  0  0  0  0
    2.0284   -0.3267   -1.0868 H   0  0  0  0  0  0  0  0  0  0  0  0
    2.1635   -0.1493    0.6938 H   0  0  0  0  0  0  0  0  0  0  0  0
  1  2  1  0
  2  3  1  0
  3  4  1  0
  1  5  1  0
  1  6  1  0
  1  7  1  0
  2  8  1  0
  2  9  1  0
  4 10  1  0
  4 11  1  0
  4 12  1  0
M  END
$$$$
