
     RDKit          3D

 12 11  0  0  0  0  0  0  0  0999 V2000
   -1.8877   -0.1030   -0.0065 C   0  0  0  0  0  0  0  0  0  0  0  0
   -0.4890   -0.4082   -0.1716 N   0  0  0  0  0  0  0  0  0  0  0  0
    0.4803    0.4341    0.3240 C   0  0  0  0  0  0  0  0  0  0  0  0
    1.8864    0.0250   -0.0239 C   0  0  0  0  0  0  0  0  0  0  0  0
    0.2391    1.4411    0.9812 O   0  0  0  0  0  0  0  0  0  0  0  0
   -2.1680    0.6587   -0.7389 H   0  0  0  0  0  0  0  0  0  0  0  0
   -2.0790    0.2736    1.0019 H   0  0  0  0  0  0  0  0  0  0  0  0
   -2.4652   -1.0138   -0.1805 H   0  0  0  0  0  0  0  0  0  0  0  0
   -0.2285   -1.0915   -0.8703 H   0  0  0  0  0  0  0  0  0  0  0  0
    2.2676    0.6848   -0.8076 H   0  0  0  0  0  0  0  0  0  0  0  0
    2.5143    0.1088    0.8675 H   0  0  0  0  0  0  0  0  0  0  0  0
    1.9297   -1.0096   -0.3754 H   0  0  0  0  0  0  0  0  0  0  0  0
  1  2  1  0
  2  3  1  0
  3  4  1  0
  3  5  2  0
  1  6  1  0
  1  7  1  0
  1  8  1  0
  2  9  1  0
  4 10  1  0
  4 11  1  0
  4 12  1  0
M  END
$$$$
