
     RDKit          3D

 12 12  0  0  0  0  0  0  0  0999 V2000
    2.9823   -0.6843   -0.0070 Cl  0  0  0  0  0  0  0  0  0  0  0  0
    1.3050   -0.2994   -0.0031 C   0  0  0  0  0  0  0  0  0  0  0  0
    0.9008    1.0348   -0.0223 C   0  0  0  0  0  0  0  0  0  0  0  0
   -0.4598    1.3460   -0.0191 C   0  0  0  0  0  0  0  0  0  0  0  0
   -1.4092    0.3234    0.0033 C   0  0  0  0  0  0  0  0  0  0  0  0
   -1.0006   -1.0109    0.0225 C   0  0  0  0  0  0  0  0  0  0  0  0
    0.3596   -1.3240    0.0194 C   0  0  0  0  0  0  0  0  0  0  0  0
    1.6374    1.8332   -0.0398 H   0  0  0  0  0  0  0  0  0  0  0  0
   -0.7797    2.3849   -0.0341 H   0  0  0  0  0  0  0  0  0  0  0  0
   -2.4691    0.5666    0.0058 H   0  0  0  0  0  0  0  0  0  0  0  0
   -1.7413   -1.8064    0.0400 H   0  0  0  0  0  0  0  0  0  0  0  0
    0.6745   -2.3638    0.0344 H   0  0  0  0  0  0  0  0  0  0  0  0
  1  2  1  0
  2  3  2  0
  3  4  1  0
  4  5  2  0
  5  6  1  0
  6  7  2  0
  7  2  1  0
  3  8  1  0
  4  9  1  0
  5 10  1  0
  6 11  1  0
  7 12  1  0
M  END
$$$$
