
     RDKit          3D

 14 14  0  0  0  0  0  0  0  0999 V2000
    2.3127    0.1473   -0.1412 N   0  0  0  0  0  0  0  0  0  0  0  0
    0.9157    0.0545   -0.1151 C   0  0  0  0  0  0  0  0  0  0  0  0
    0.2955   -1.1812    0.0868 C   0  0  0  0  0  0  0  0  0  0  0  0
   -1.0917   -1.2688    0.2311 C   0  0  0  0  0  0  0  0  0  0  0  0
   -1.8679   -0.1124    0.2169 C   0  0  0  0  0  0  0  0  0  0  0  0
   -1.2539    1.1300    0.0773 C   0  0  0  0  0  0  0  0  0  0  0  0
    0.1337    1.2115   -0.0666 C   0  0  0  0  0  0  0  0  0  0  0  0
    2.6563    0.9883   -0.5937 H   0  0  0  0  0  0  0  0  0  0  0  0
    2.7698   -0.6907   -0.4861 H   0  0  0  0  0  0  0  0  0  0  0  0
    0.8892   -2.0900    0.1330 H   0  0  0  0  0  0  0  0  0  0  0  0
   -1.5620   -2.2385    0.3690 H   0  0  0  0  0  0  0  0  0  0  0  0
   -2.9461   -0.1777    0.3351 H   0  0  0  0  0  0  0  0  0  0  0  0
   -1.8510    2.0376    0.0949 H   0  0  0  0  0  0  0  0  0  0  0  0
    0.5998    2.1901   -0.1413 H   0  0  0  0  0  0  0  0  0  0  0  0
  1  2  1  0
  2  3  2  0
  3  4  1  0
  4  5  2  0
  5  6  1  0
  6  7  2  0
  7  2  1  0
  1  8  1  0
  1  9  1  0
  3 10  1  0
  4 11  1  0
  5 12  1  0
  6 13  1  0
  7 14  1  0
M  END
$$$$
