
     RDKit          3D

 15 15  0  0  0  0  0  0  0  0999 V2000
   -0.3390    1.2245    0.1188 C   0  0  0  0  0  0  0  0  0  0  0  0
    1.0330    0.6943   -0.2683 C   0  0  0  0  0  0  0  0  0  0  0  0
    1.0106   -0.7349    0.2447 C   0  0  0  0  0  0  0  0  0  0  0  0
   -0.3900   -1.2100   -0.1104 C   0  0  0  0  0  0  0  0  0  0  0  0
   -1.2801    0.0254    0.0148 C   0  0  0  0  0  0  0  0  0  0  0  0
   -0.3205    1.5885    1.1531 H   0  0  0  0  0  0  0  0  0  0  0  0
   -0.6552    2.0552   -0.5192 H   0  0  0  0  0  0  0  0  0  0  0  0
    1.1488    0.7048   -1.3585 H   0  0  0  0  0  0  0  0  0  0  0  0
    1.8448    1.2829    0.1685 H   0  0  0  0  0  0  0  0  0  0  0  0
    1.1509   -0.7504    1.3320 H   0  0  0  0  0  0  0  0  0  0  0  0
    1.7880   -1.3550   -0.2103 H   0  0  0  0  0  0  0  0  0  0  0  0
   -0.4097   -1.5739   -1.1447 H   0  0  0  0  0  0  0  0  0  0  0  0
   -0.7241   -2.0279    0.5350 H   0  0  0  0  0  0  0  0  0  0  0  0
   -1.9375    0.1124   -0.8571 H   0  0  0  0  0  0  0  0  0  0  0  0
   -1.9201   -0.0359    0.9017 H   0  0  0  0  0  0  0  0  0  0  0  0
  1  2  1  0
  2  3  1  0
  3  4  1  0
  4  5  1  0
  5  1  1  0
  1  6  1  0
  1  7  1  0
  2  8  1  0
  2  9  1  0
  3 10  1  0
  3 11  1  0
  4 12  1  0
  4 13  1  0
  5 14  1  0
  5 15  1  0
M  END
$$$$
